370
 energy: -608.998181307133 gnorm: 0.000661691277 xtb: 6.5.1 (b24c23e)
C           68.63389471153141        0.05216899025405        0.08153603592494
C           69.24722102647488        1.22754287537915        0.49465814782169
C           68.59946184186681        2.41426397176122        0.93947418311020
C           69.56444019394029        3.33504015659162        1.23640991545939
C           70.83373098493584        2.74394434518320        0.97505464711158
N           70.59090615581216        1.47107234375177        0.54069341408863
C           72.09746100262508        3.31975339949502        1.14250273657288
C           72.13502997245024        4.73421242300012        1.58828504670004
C           71.58790075236040        5.71597542373340        0.85567142687264
C           71.59900034266641        7.15726137157702        1.29442751605866
N           72.57097623262806        7.37715557780640        2.36853108590065
C           72.95205588340518        6.34705073927252        3.18817013518372
C           72.79631683185086        5.05625696849178        2.84453586405144
C           73.31055599183391        2.66212646789717        0.91973543329720
C           74.61064618631977        3.29229822035123        1.06401702596237
C           75.52834484820822        2.35004144064219        0.76477829732889
N           73.45976837923627        1.36932641055845        0.52302106595713
C           74.78808401393466        1.14933681987941        0.42691650772109
C           75.41856130389013       -0.05294282794911        0.05493585860919
C           74.78041223888761       -1.24361851769535       -0.33619067139541
C           75.42104003336161       -2.45773004191999       -0.70122580425352
C           74.45146092143722       -3.36520120216851       -1.02657042073569
C           73.18722806300283       -2.73116401221526       -0.87491168380498
N           73.43795582548330       -1.45292229351360       -0.45052630458236
C           71.92427628387702       -3.29612163290038       -1.08391388226823
C           71.89305093076709       -4.69857131690279       -1.56412037609481
C           71.30779989774106       -5.67426594486758       -0.85339847941953
C           71.24769813180002       -7.10092040731997       -1.33337722354712
N           72.20906877332419       -7.33825421120436       -2.41373012778784
C           72.63031751900543       -6.30488341691348       -3.21003219922352
C           72.53434181339672       -5.01798003811789       -2.83214310328442
C           70.71026956337721       -2.63419820449134       -0.87250674964596
C           69.40317039706228       -3.21280855529630       -1.14192940005875
C           68.49304580242583       -2.27630648075731       -0.80565801519623
C           69.24286297194837       -1.12098496704883       -0.34600350013537
N           70.57369651593415       -1.36914575023880       -0.40754928637906
H           67.54850479055268        0.06226223510946        0.09090589234017
H           67.53072653406061        2.53308515374897        1.02202535682122
H           69.41699523358471        4.33422432836214        1.61304562994580
H           71.31416212433538        0.80521767711146        0.29017137483203
H           71.09730463429329        5.51724373119891       -0.09016872460857
H           70.58932458457910        7.46262044586221        1.62804610505803
H           71.87154145756422        7.80704577365601        0.45164913802137
H           72.50807200734846        8.28953701270385        2.79632997620688
H           73.46303236432509        6.65348264520395        4.09534914965435
H           73.14773546438185        4.25704820550769        3.48141336064710
H           74.77580811153544        4.31897992643168        1.34821316227346
H           76.60322720779371        2.43574883741785        0.75645910365442
H           76.48863367842003       -2.60812180324817       -0.70741910512701
H           74.59474668927315       -4.38686685730221       -1.33880165550538
H           72.71782682602962       -0.76873646461809       -0.24339014963487
H           70.83193419128108       -5.47880293168302        0.10043867830837
H           70.22451551033187       -7.34540312969555       -1.67552710838840
H           71.48672843894224       -7.78756592740315       -0.51009455142838
H           72.09822429819447       -8.23343714865379       -2.86770676425666
H           73.12239457393618       -6.60985181338593       -4.12813887393793
H           72.91560008572071       -4.21919287037676       -3.45241243642315
H           69.23006176719201       -4.19724172247379       -1.54602980567683
H           67.41688994806657       -2.32883153863856       -0.86304777872368
C          142.74730634119723       -0.09130290348110        0.04717113280844
C          142.13307364913069       -1.30416045020304       -0.23576254907305
C          142.77860577853548       -2.55158899129805       -0.46588847782973
C          141.81352956763794       -3.48468171970586       -0.72109453324248
C          140.54664088731380       -2.83609193006237       -0.66456268139090
N          140.79053893417125       -1.52671593761291       -0.35806051305543
C          139.28355856850266       -3.40445672458310       -0.85989248238641
C          139.24461874548527       -4.84258992935049       -1.22161427217363
C          139.82192952361234       -5.30241497554859       -2.34196986525171
C          139.81083681280330       -6.76104186838134       -2.71928140229068
N          138.80762704075835       -7.50053360979424       -1.94888319438142
C          138.39314574272095       -7.04634086393476       -0.72401265540754
C          138.54845644284148       -5.76737637158016       -0.33870485351885
C          138.07167986693324       -2.71869584508894       -0.73738237176569
C          136.77380984618463       -3.31962007719960       -0.98761108413772
C          135.85633786770154       -2.35603426714901       -0.76545320686882
N          137.92205860620672       -1.41177086899738       -0.39050256501256
C          136.59481771578135       -1.16548084274468       -0.38997990505643
C          135.96375163553935        0.05107473206027       -0.06905604891378
C          136.60183631618887        1.26106762124061        0.25743685515757
C          135.96122033184906        2.48457247258377        0.58963579844303
C          136.93152326792523        3.42016788351098        0.81909287181506
C          138.19624653092848        2.79756599254079        0.62906050003331
N          137.94497066037508        1.49234745342027        0.29737759513347
C          139.45963622810558        3.38071283147006        0.77624854659940
C          139.49173565917997        4.82246791193187        1.12074564261785
C          140.05934483940030        5.26412189234230        2.25316204341254
C          140.11995986496717        6.72598229952104        2.61174335778628
N          139.17689337134971        7.50898868072788        1.80847323990843
C          138.77501262635488        7.06347535227998        0.57584829705049
C          138.87090927853626        5.77340329317567        0.20890282201234
C          140.67326911560573        2.70234298669711        0.62289874580381
C          141.98168302078679        3.32941786690530        0.72658948564153
C          142.89094322350041        2.35305601581854        0.53061169483954
C          142.13957863611026        1.13366572103915        0.29220721029643
N          140.80865768546823        1.38319314400656        0.34606190689355
H          143.83227549062389       -0.11096134376708        0.07378354236598
H          143.84584700919592       -2.70309217162115       -0.43163645146319
H          141.95928094043339       -4.53359935495241       -0.92228860812594
H          140.06863719432917       -0.82413175689902       -0.23781381435638
H          140.33879035052561       -4.64359995313182       -3.03015399421077
H          140.81242436815020       -7.20372977289341       -2.56150369662553
H          139.57134434823567       -6.87423215977997       -3.78536590539192
H          138.86573754410392       -8.50261610478400       -2.05797168273220
H          137.85729368342066       -7.77663754596376       -0.12610961425436
H          138.17094845874738       -5.41482646837091        0.61052977870259
H          136.61021571348462       -4.33878855428030       -1.29851572715165
H          134.78288620819359       -2.41642637462381       -0.84821754302128
H          134.89310932903507        2.62006842023249        0.64613856588309
H          136.78827720148888        4.45059405544703        1.10110125741948
H          138.66491427910395        0.80005413018520        0.11845890411089
H          140.51967390519354        4.58663630246226        2.96278845940512
H          141.14773307590681        7.11058287845832        2.47213660983041
H          139.86225788768252        6.86699076483528        3.67010772723041
H          139.29100336362370        8.50763467073575        1.90546261782790
H          138.29763788642913        7.81452951689068       -0.04552279737248
H          138.50465273462584        5.43176609283866       -0.74885616838047
H          142.15632270551467        4.37722709857578        0.91090448354994
H          143.96764802837356        2.42283337671500        0.53019192650826
C           78.05000120642322       -0.09309324665524        0.07615765516485
C           76.82908401247521       -0.07800442219782        0.06727710238754
C           79.40293164242320       -0.10162689571036        0.08087132657713
C           80.62407062526061       -0.10128971990189        0.08187400842459
C           91.53418533362859       -0.00898823255329        0.01610851829557
C           90.31125568863446       -0.00895148474227        0.02974459998725
C           92.88289129830450       -0.00932219794004        0.00868703411477
C           94.10594917154071       -0.00867889310280       -0.00046618712401
C          105.01695168941389       -0.00089030536178        0.00008257550095
C          103.79373365644591        0.00324567989230        0.00373615598478
C          106.36550591957482       -0.00694477458366        0.00012774583362
C          107.58868164064486       -0.01163034335789       -0.00353358614413
C          118.49927262782586       -0.00153018489667       -0.00000703096201
C          117.27628785540875       -0.00114983819200        0.00763491929128
C          119.84799539159167       -0.00220486481854       -0.00578202124939
C          121.07104366570233        0.00063589987370       -0.01544219287471
C          131.97913781697261        0.08975516430326       -0.06015123277896
C          130.75803969461631        0.08796994569743       -0.05151769622254
C          133.33213021326847        0.08402364469457       -0.06623513210677
C          134.55307720552457        0.07216649645174       -0.07162151723912
C           82.03371776083169       -0.10265636024235        0.07593331898242
C           82.66693494899809       -0.29837295755349        1.31666945346315
C           82.02765009724055       -0.47213612913105        2.57186489866247
C           83.00039294002796       -0.60976567261052        3.52385251232765
C           84.26352976783133       -0.53266972474460        2.87578593927827
N           84.01074946711641       -0.33960429617547        1.54380451459258
C           85.52690870440168       -0.61146712760268        3.47267383075971
C           85.55546149464504       -0.84547446210465        4.93850706577004
C           85.06931341367401       -1.97121544184215        5.48219840127797
C           85.13869096777489       -2.24810339161868        6.96114967014250
N           85.39617586248225       -1.01988699754165        7.71746267513467
C           86.03838837084585        0.03960591678395        7.13084511149493
C           86.12174797868516        0.18475997266092        5.79661023559628
C           86.74855736290134       -0.48885515890916        2.80916326027264
C           88.03659255630400       -0.63859384609955        3.46192835451886
C           88.97289638923205       -0.47260232066769        2.50453837594307
N           86.92364529430417       -0.24785887659886        1.48031270671395
C           88.25510919359915       -0.22703458184606        1.26944362803224
C           88.90669944778728       -0.00916025348137        0.03828439850754
C           88.27082863870488        0.20219767222462       -1.20089572270299
C           88.90949380050681        0.39257386766067       -2.45333494058595
C           87.93618169250362        0.53784481313821       -3.40407054896888
C           86.67360759630711        0.44812657813923       -2.75719924758551
N           86.92754650543463        0.24179734993957       -1.42688222997461
C           85.41041649771174        0.52233238554996       -3.35441176344404
C           85.38058770916409        0.77168802129763       -4.81753409038789
C           85.85666932471581        1.90831110282088       -5.34737617783169
C           85.78440459765628        2.20466814953001       -6.82229872928542
N           85.52208222148018        0.98791424268955       -7.59545898822772
C           84.89379101114304       -0.08561586213275       -7.02012159074872
C           84.82085522575674       -0.25185955227280       -5.68769235326263
C           84.18878238151274        0.38338306969393       -2.69296303025800
C           82.89984123872861        0.52215827147690       -3.34727483422934
C           81.96413152540289        0.34633038086359       -2.39156738487775
C           82.68253592322604        0.10754608984543       -1.15519805815924
N           84.01541217343922        0.13866985276571       -1.36591197201008
H           80.95962533394331       -0.48167065315470        2.71871258186556
H           82.85973038015402       -0.74386511109626        4.58396821354342
H           84.72523659172009       -0.23380401980406        0.83136961748628
H           84.66883204532616       -2.77285067320073        4.87251827687125
H           85.92459101949898       -2.99733268940584        7.17351018452877
H           84.18670255069026       -2.66930131202246        7.31168752218265
H           85.59596485952362       -1.17692409219336        8.69477377790659
H           86.39762510745476        0.79296988038686        7.82463757481109
H           86.56425297171867        1.06479601913368        5.35211792856826
H           88.18165232009349       -0.85517408291045        4.50814973313597
H           90.04651315897488       -0.51367614985188        2.59743048719146
H           89.97742981726168        0.40760209663046       -2.60031125745266
H           88.07661917574525        0.68449519442544       -4.46254147483098
H           86.21350177903031        0.12656429693466       -0.71542987115459
H           86.25032815755402        2.70560910774328       -4.72761566442466
H           84.99975075346725        2.95838756571977       -7.02248654990206
H           86.73649756161912        2.62898781701507       -7.16926060215380
H           85.31239144701537        1.15945667842087       -8.56819657386290
H           84.53556701093878       -0.83121776811968       -7.72277635693576
H           84.38942891535469       -1.14268491465862       -5.25394139491807
H           82.75378309406807        0.73840817428924       -4.39339300372356
H           80.89036765637013        0.37784493334706       -2.48575750581313
C           95.51029400905009       -0.01559082962209       -0.00152921440142
C           96.13716328573776       -0.22998603743418        1.24205573351089
C           95.48943724533572       -0.40977110893675        2.49104988474525
C           96.45600594530785       -0.56235645296750        3.44786898311356
C           97.72270695373655       -0.48921145439934        2.80781582085405
N           97.47868603420200       -0.28328478367845        1.47568181004276
C           98.98216651930588       -0.58046679480695        3.41218293487212
C           98.99797915065759       -0.82623644479375        4.87622375150983
C           98.49891975162750       -1.95268960792405        5.40669444353971
C           98.55345357824649       -2.24207144734804        6.88381640365039
N           98.81416828183823       -1.02211732466367        7.65229879770777
C           99.46914462054903        0.03721971482923        7.07967781805616
C           99.56476852203242        0.19263059296373        5.74742067611206
C          100.20915060658487       -0.46057972382386        2.75872139339510
C          101.49160439429228       -0.62070016683284        3.41964051300974
C          102.43563485258579       -0.45580876781922        2.46958257919917
N          100.39520382038349       -0.21441295533438        1.43189634809434
C          101.72806041579688       -0.20127909455517        1.23056069648020
C          102.38954350530922        0.01362252163010        0.00385415690062
C          101.76262775717231        0.22898614735595       -1.23959450843276
C          102.41024226669794        0.40890686027625       -2.48861728206589
C          101.44360830176639        0.56253884825146       -3.44522868589958
C          100.17690642979574        0.48953017556779       -2.80511945521363
N          100.42109940429474        0.28301995745937       -1.47302691415839
C           98.91742941422915        0.58078881375622       -3.40940291409367
C           98.90087693413192        0.82624244148904       -4.87347559749732
C           99.39949201922968        1.95250279053194       -5.40475209233880
C           99.34305709229864        2.24189206639554       -6.88180394770563
N           99.07928485519629        1.02245745102025       -7.65009411817704
C           98.42524811092623       -0.03678188364607       -7.07622877611065
C           98.33251454544563       -0.19250826371790       -5.74381875594512
C           97.69035268440480        0.46052514145379       -2.75594787525470
C           96.40778708803360        0.62016796460574       -3.41688139559424
C           95.46378464350963        0.45405048826112       -2.46700888668167
C           96.17146659147612        0.19985817540552       -1.22803783639338
N           97.50443100109459        0.21389075270772       -1.42932421099833
H           94.42062776371114       -0.41252161672749        2.63224081641314
H           96.30764885841120       -0.70370964763465        4.50596373894766
H           98.19766656403048       -0.17743979104905        0.76775904617260
H           98.09751979364950       -2.74626608230422        4.78716336385270
H           99.33139711863319       -2.99933343546434        7.09685500514657
H           97.59507304610791       -2.65838092842331        7.22264911947240
H           99.00453853316407       -1.18866882698468        8.62990702665645
H           99.82811454465401        0.78223161956807        7.78255960509227
H          100.01733049002344        1.07305527751106        5.31398223672914
H          101.62820496975858       -0.84270139654785        4.46586114250239
H          103.50830133355326       -0.50358956192260        2.56985011430077
H          103.47905059820147        0.41127278976552       -2.62987671493841
H          101.59180839247951        0.70447084602697       -4.50327318523930
H           99.70217602354177        0.17700710697379       -0.76506782744622
H           99.80163269248936        2.74617698173833       -4.78582515703733
H           98.56588603764352        3.00030641513861       -7.09353457766513
H          100.30148339728989        2.65687230498493       -7.22217119412850
H           98.88623116548999        1.18958287488331       -8.62708204764712
H           98.06434972717170       -0.78141257848945       -7.77852806686167
H           97.88058157316323       -1.07289214383920       -5.30963882673195
H           96.27102325843347        0.84270061630635       -4.46296470520029
H           94.39107072515830        0.50110497749395       -2.56720484056906
C          108.99287754100570       -0.02178682522678       -0.00280528825381
C          109.61877953001132       -0.23565634542918        1.24144092608533
C          108.97019331463298       -0.41317768811562        2.49029856520536
C          109.93607123077282       -0.56575778991156        3.44786062802511
C          111.20324471679858       -0.49457679869075        2.80851642959154
N          110.96011291975343       -0.28999528719244        1.47592953354193
C          112.46229461957947       -0.58638478261151        3.41361026805254
C          112.47817577513119       -0.82992744543330        4.87798177568204
C          111.97753881906117       -1.95452329225334        5.41089521081657
C          112.03383672859549       -2.24210623646164        6.88831170853197
N          112.30075869395148       -1.02235919270774        7.65502568777136
C          112.95653085573944        0.03489975684462        7.07948788624198
C          113.04876721684978        0.18885506765961        5.74684393761999
C          113.68981420910472       -0.46830949398484        2.76056457098364
C          114.97183637273335       -0.62981345919935        3.42209458274128
C          115.91651968824597       -0.46492802358887        2.47268722010260
N          113.87670894481265       -0.22199236220747        1.43402210593574
C          115.20979823995904       -0.20905246432273        1.23350425426301
C          115.87195320422389        0.00702130678227        0.00760620090654
C          115.24604505693465        0.22207101263320       -1.23630812242164
C          115.89475892146213        0.40208825299532       -2.48473001722850
C          114.92894649604844        0.55547533690936       -3.44217259690353
C          113.66171268125397        0.48215534508350       -2.80315547137011
N          113.90469415044147        0.27540909923280       -1.47096166048154
C          112.40270313809461        0.57363120859316       -3.40853096370464
C          112.38849710141731        0.82116271174098       -4.87224948047347
C          112.89024578853959        1.94744389610363       -5.40062410399794
C          112.83866366568483        2.23902309464249       -6.87739403498256
N          112.57449890219978        1.02116925451463       -7.64802228729503
C          111.91732063805726       -0.03783521492810       -7.07745300370257
C          111.82070723244742       -0.19536017795493       -5.74550377044609
C          111.17520269664635        0.45273110016834       -2.75615631801435
C          109.89314251806145        0.61233577574822       -3.41798070323682
C          108.94848151597320        0.44657236073417       -2.46869906330584
C          109.65524219762952        0.19234267063682       -1.22916144967393
N          110.98825664509735        0.20622776497232       -1.42951060073020
H          107.90129123125067       -0.41467437253071        2.63086771333419
H          109.78699626304648       -0.70577394113663        4.50603912398285
H          111.67959831236296       -0.18537060178938        0.76833728670580
H          111.57386431262522       -2.74833904812616        4.79314888540353
H          112.80934112015251       -3.00204826808886        7.10066802324441
H          111.07459795173656       -2.65446978163334        7.22957997827207
H          112.49428927557925       -1.18880931707158        8.63203685414676
H          113.31940182437128        0.77962423605242        7.78067122932035
H          113.50222026629392        1.06781563004068        5.31136239517776
H          115.10781436202470       -0.85279067564260        4.46818570495223
H          116.98911727444225       -0.51348762204254        2.57335718094258
H          116.96367776925619        0.40473802819423       -2.62510143829712
H          115.07818264632364        0.69727659915473       -4.50007817837759
H          113.18517409874278        0.16943250196754       -0.76360220553749
H          113.29225236764006        2.73945221756283       -4.77947182158380
H          112.06384281514813        2.99944841693343       -7.09045127473554
H          113.79904688782993        2.65233088742788       -7.21433012614058
H          112.38514174936397        1.18975607546745       -8.62546476053177
H          111.55716728508710       -0.78091669416664       -7.78177231618876
H          111.36640010965938       -1.07576410669227       -5.31385991367595
H          109.75712907877167        0.83458968320372       -4.46422004312045
H          107.87586289867097        0.49362783271970       -2.56983164015430
C          122.47564554248278       -0.00030891753508       -0.02203975333716
C          123.10875233240147       -0.21016944157162        1.21877870357820
C          122.46716261232422       -0.39673934120697        2.47026920799596
C          123.43823548574015       -0.54228920603460        3.42322824147179
C          124.70234699237399       -0.45680524757068        2.77872733261610
N          124.45151532093972       -0.25194123444968        1.44758425533224
C          125.96417949022339       -0.53472377228424        3.37848911083328
C          125.98982024000242       -0.78377182612919        4.84169412571254
C          125.50561891288963       -1.91726054223716        5.37103207762622
C          125.57219337992032       -2.21296455042350        6.84635268365783
N          125.83792670918210       -0.99682225865708        7.61926011224772
C          126.47468835487587        0.07239661315158        7.04515395501063
C          126.55319396682555        0.23694957397150        5.71282617243547
C          127.18754627574303       -0.39958724987529        2.71929489350197
C          128.47502032756000       -0.54375246922798        3.37541053037663
C          129.41288819881640       -0.36868865890894        2.42161497590856
N          127.36392336176391       -0.15286087325481        1.39306243709272
C          128.69728929863044       -0.12497531084513        1.18460424572275
C          129.34832428570601        0.08889958587966       -0.04462704759684
C          128.71741947886431        0.28957518230375       -1.28574131634376
C          129.35976781928963        0.46633873473814       -2.53894202892156
C          128.38938270904362        0.60570064261865       -3.49298153838867
C          127.12467735753037        0.52706593264544       -2.84815674946320
N          127.37418595747948        0.33125664343874       -1.51596059311473
C          125.86284075438657        0.60602791389328       -3.44834390758606
C          125.83927150006987        0.84292943267009       -4.91371516075014
C          126.33022319055213        1.96863482986001       -5.45325698949325
C          126.26887621879874        2.24803120784283       -6.93205630771813
N          126.01286876604055        1.02143381326835       -7.69142215170542
C          125.36535006471512       -0.03755378263710       -7.10978677147591
C          125.27482955426366       -0.18460542114431       -5.77621694246649
C          124.63962657063310        0.48092867829920       -2.78821337274039
C          123.35296735000071        0.62950335115013       -3.44388794172600
C          122.41463029472229        0.46184717825399       -2.48875794103560
C          123.12978444269827        0.21671564952371       -1.25203379140581
N          124.46169998485078        0.23875241564296       -1.45995056995453
H          121.39890200067734       -0.40910369344332        2.61518610485773
H          123.29516298627600       -0.68633671269719        4.48170050756181
H          125.16724830018154       -0.13930297120611        0.73742978806797
H          125.10874896281558       -2.71257544665778        4.75077054726719
H          126.35263654716634       -2.97028120289805        7.04945209958714
H          124.61704279662494       -2.63243115940975        7.19077709521592
H          126.04285086094619       -1.16845387478514        8.59300068678091
H          126.83487097852840        0.81654538059614        7.74834156946701
H          126.99136726229408        1.12483720713130        5.27982085561741
H          128.61863363957605       -0.76293807020385        4.42126466133077
H          130.48643282221059       -0.40370339985855        2.51715644817846
H          130.42811377542833        0.47627814323476       -2.68334289924114
H          128.53280480154274        0.74165061693492       -4.55247332495192
H          126.65796035192611        0.22377720376397       -0.80552431094169
H          126.72974469684672        2.76827433966513       -4.84032734907529
H          125.48570800736167        2.99924719644137       -7.14742140832991
H          127.22359769643455        2.66771807576821       -7.27697048751423
H          125.81923986571778        1.18001274568858       -8.66971132487674
H          125.00811857157612       -0.78907165689514       -7.80660066329231
H          124.82842310593946       -1.06450830748770       -5.33539123935573
H          123.21010704817274        0.84654421023493       -4.49031173564653
H          121.34119377182054        0.50161366384969       -2.58417379008614
