118
 energy: -199.827437211541 gnorm: 0.000572766891 xtb: 6.5.1 (b24c23e)
Fe          12.77940882631890       -0.03282852328369       -0.07455209902804
C            9.39077687833362       -0.06064323239769       -0.08455036583420
C           10.04630680716350       -1.25791553260133       -0.28564348191157
C            9.37282424310607       -2.50278213283929       -0.50189867965128
C           10.32848630661426       -3.46137154867076       -0.52630227390043
C           11.58633316872514       -2.79842978300135       -0.33709210460306
N           11.40084394397748       -1.44877926833110       -0.20581276738931
C           12.80182574235084       -3.46101791419722       -0.20480731543688
C           14.00726829471891       -2.79763327487025       -0.02929321203648
C           15.27497049548300       -3.45984924884794        0.05453041338252
C           16.22128949228613       -2.49094294454939        0.08058101022940
N           14.18108098377822       -1.43335907476067       -0.02762268390006
C           15.52998929804889       -1.24174877402004        0.01251461952022
C           16.18711609722029       -0.00709884678336       -0.06324206592002
C           15.50706627018687        1.21629942957320       -0.10964049237294
C           16.17170014506547        2.47716818678159       -0.21240908521035
C           15.21156679730595        3.42963487054157       -0.12849863977286
C           13.96327826691455        2.74534435920324        0.03179518588865
C           12.74645710163635        3.38641957100759        0.22038186312724
C           12.73328474057740        4.86422548974705        0.33130531670954
C           12.03449159107367        5.63840959556197       -0.59607352284086
C           12.02603582496103        7.02101204774562       -0.48975954665678
C           12.70927487492139        7.64610112304128        0.54451550098210
C           13.40553098044408        6.88262828563427        1.47172704053513
C           13.42126264803428        5.50013132370142        1.36576490158012
C           11.53839727117245        2.70128786892373        0.29657876085731
C           10.26924689529356        3.33394667897351        0.51303194902395
C            9.32736430383012        2.36665686579600        0.41174142279299
C           10.02293144725563        1.14283771804322        0.15106516177891
N           11.37689423791806        1.35288346036117        0.12386448203773
N           14.15939243552687        1.38510183492397        0.00898151295726
C           12.81071586103991       -4.94398277856412       -0.25810872353722
C           12.48259073899251       -5.61367316541638       -1.43683554255598
C           12.49252328534956       -6.99999118395370       -1.47919722861620
C           12.82356599832439       -7.73100053168502       -0.34640835512838
C           13.14991297501131       -7.07047691640803        0.83020773834150
C           13.14728814932325       -5.68438654165656        0.87528542164679
H            8.30664327508908       -0.06836378164465       -0.09988344758988
H            8.30475056780266       -2.61079689614102       -0.60508003456010
H           10.20447349063172       -4.52509213203322       -0.64868146142540
H           15.41330818423794       -4.52860442336240        0.06951435823927
H           17.29290408194837       -2.59763314640052        0.13075545718641
H           17.23573858533022        2.60187956421308       -0.33321328167499
H           15.32709672702466        4.49995749428864       -0.17978501610186
H           11.51133272528402        5.15258410361425       -1.41216951480300
H           11.48384529489577        7.61310053338604       -1.21867677374759
H           12.69948029835426        8.72695923129296        0.62762718098571
H           13.93901743091557        7.36605402023747        2.28259367266346
H           13.95544048403807        4.90413812138921        2.09730083149646
H           10.12953522324956        4.38297531371484        0.71766212483903
H            8.25643546924179        2.45399551679094        0.50439799651502
H           12.23409433871026       -5.04341400920290       -2.32493666618947
H           12.24070458265392       -7.51172488209832       -2.40146820908539
H           12.82771817404932       -8.81456524310497       -0.38065512358065
H           13.40730020036333       -7.63707149042277        1.71821142774890
H           13.39303232139415       -5.16839897355872        1.79672559362683
Fe          28.75948237530682        0.03548402705390       -0.07254665563857
C           32.14811866558025        0.06442770666298       -0.07694934955513
C           31.49269771178517        1.26917871641219       -0.22736457105121
C           32.16617474499432        2.52227659759980       -0.38913407748237
C           31.21024969912978        3.48081165345631       -0.37443522407274
C           29.95228657729313        2.81015531122666       -0.21559723043757
N           30.13798340954139        1.45616461902803       -0.14190285283180
C           28.73653840407826        3.46623074552977       -0.05578083163796
C           27.53117517951152        2.79565726563998        0.09075192994179
C           26.26333385393520        3.45337434585730        0.20320804082193
C           25.31717009898208        2.48408540007912        0.18732693181344
N           27.35753600559985        1.43255969309737        0.03328285116876
C           26.00866165744278        1.23913809299561        0.06518196003050
C           25.35180864742242        0.00880810470920       -0.06423582590711
C           26.03208681128531       -1.21128188581126       -0.16371671382459
C           25.36759565765733       -2.46654251123163       -0.32144008415378
C           26.32779322051264       -3.42166832013373       -0.27894138769683
C           27.57600472706779       -2.74491107764811       -0.08876022210497
C           28.79282152025610       -3.39349720666398        0.07208697982308
C           28.80611392931601       -4.87472406781960        0.11836221799185
C           29.50649385414658       -5.60753603796451       -0.84091513421492
C           29.51490925637794       -6.99346378933087       -0.79532684419010
C           28.82994269049856       -7.66333779173913        0.20935389254060
C           28.13215823665723       -6.94125535575340        1.16803328923489
C           28.11658134131997       -5.55543133069350        1.12285174896615
C           30.00069296523491       -2.71209898924983        0.17907369732927
C           31.26974985725947       -3.35333235877629        0.36922354824580
C           32.21143628516028       -2.38223824170640        0.31222834256559
C           31.51586429846066       -1.14831009740635        0.10463980551497
N           30.16200999482893       -1.35737981838872        0.06597369905443
N           27.37976470209156       -1.38495766416839       -0.05246249293824
C           28.72760318080816        4.95010362739328       -0.04500362981103
C           29.05747926326160        5.67005390696126       -1.19323474601073
C           29.04765319111183        7.05690165416846       -1.17576208385010
C           28.71499928065472        7.73838045706382       -0.01295874663058
C           28.38698976168617        7.02771457207337        1.13357405732686
C           28.38949456980027        5.64096989815884        1.11880337125460
H           33.23227915127383        0.07297383063797       -0.08978531309710
H           33.23438599804718        2.63492068545216       -0.48573688858525
H           31.33426693948447        4.54878604242851       -0.45129095926915
H           26.12475138572833        4.52043465768254        0.26458792387319
H           24.24554762462161        2.58834527719889        0.24222098657089
H           24.30358194325364       -2.58600803296828       -0.44766509124852
H           26.21230484559140       -4.48875439147936       -0.37673159032170
H           30.03089566852108       -5.08638755701128       -1.63410024419219
H           30.05838858547929       -7.55299991459830       -1.54859368617260
H           28.83958761602986       -8.74680401304404        0.24493687457109
H           27.59732270336488       -7.45978038371618        1.95600581798974
H           27.58125490860725       -4.99218410194208        1.87908121184047
H           31.40957568996484       -4.41032082808495        0.52756812618149
H           33.28225191050513       -2.47328882011027        0.40258868060980
H           29.30728839522947        5.13862248885358       -2.10474308509304
H           29.30125237158870        7.60794061243899       -2.07462800568053
H           28.71116731528290        8.82241910400539       -0.00032636141334
H           28.12826973956208        7.55548044413609        2.04481205708136
H           28.14236995710496        5.08580711006402        2.01680703623607
C           21.38466613907865       -0.00132801001091       -0.10969999768118
C           20.15430639024854        0.00538518445026       -0.10600197239401
C           18.81315368042300        0.00279339138712       -0.09889981688393
C           17.58745388358433        0.00271939467223       -0.08522366389940
C           22.72581620221120       -0.00262521921929       -0.10150378335679
C           23.95148845544924       -0.00079721542420       -0.08760214481097
