254
 energy: -461.305742500690 gnorm: 0.000940015395 xtb: 6.5.1 (b24c23e)
Fe          39.06614721808005       -0.02351736032474       -0.11137535974752
C           35.68048274212460       -0.07218272877958       -0.29006676500494
C           36.33878154648938       -1.28321489525042       -0.24390726875961
C           35.66376896255252       -2.54567976451270       -0.24648526563013
C           36.61743066949840       -3.49495760400427       -0.09990766827532
C           37.87679300460890       -2.81148520116893       -0.03154632250525
N           37.69186803672983       -1.45753921357958       -0.11433601690944
C           39.09911110401002       -3.45375726220929        0.13269570710882
C           39.11589096672333       -4.93198042588943        0.25373192932470
C           38.69406501104460       -5.73882968830317       -0.80289384013619
C           38.71132841524695       -7.12043745292959       -0.68842005983974
C           39.14694131959037       -7.71062534848948        0.49571177297588
O           39.17531886546984       -9.05921105436489        0.65216971501518
C           39.56979436299209       -6.91518229884361        1.55913313741646
C           39.55691991974935       -5.53749618635878        1.43266865235040
C           40.30781930417977       -2.77345819158412        0.17031171271870
C           41.58150496704541       -3.42575101002616        0.24186838257339
C           42.52292831601522       -2.45503354421079        0.16761107444704
N           40.47365864952143       -1.41270140925726        0.06356578953627
C           41.82281085723793       -1.21394074509030        0.05573373257149
C           42.47415451915926        0.02084979035835       -0.04207301546376
C           41.79317658864061        1.24151091102832       -0.10869457296255
C           42.46276305685912        2.50119057165972       -0.19472145836357
C           41.49891630045599        3.45278370797441       -0.20134454218225
C           40.24235781429097        2.76968980193930       -0.11747103395755
N           40.44023686357174        1.40998283219018       -0.07431074694009
C           39.01401874241895        3.41590115879130       -0.10605446293879
C           38.99260628434538        4.89808126700510       -0.11543966401965
C           39.55300689315763        5.62399843609633        0.93835345182506
C           39.53149832674440        7.00740105036303        0.93559033312899
C           38.95227966870327        7.68781260320549       -0.13406039523790
O           38.95096233642620        9.04533675839980       -0.10648734356980
C           38.39518449384106        6.97720869998673       -1.19477814942059
C           38.41438541319523        5.59127810273267       -1.17941285899392
C           37.80301174949632        2.73223375232313       -0.11288933925517
C           36.52158211450080        3.37711361487032       -0.10260202727010
C           35.58982549685888        2.39837270895688       -0.18136047165638
C           36.30174250581337        1.15702025469283       -0.21595382249635
N           37.65361992142684        1.37174442137340       -0.15086522805897
H           34.59867304484492       -0.08777615469788       -0.36184038702954
H           34.59579925253136       -2.66811501239973       -0.33369613922786
H           36.49040837202851       -4.56333446000242       -0.03470587771063
H           38.36655911330438       -5.28092090097448       -1.72959632483670
H           38.38886732508889       -7.74379963164944       -1.51551960655443
H           38.86067345273005       -9.51272596628973       -0.14130782721790
H           39.90354572097873       -7.38772525029594        2.47463836233929
H           39.87662046020219       -4.91764028615825        2.26278379347290
H           41.72624919244834       -4.49102175466523        0.31799556645246
H           43.59627524927399       -2.55480591155186        0.18300870044697
H           43.53252077880776        2.62512403735572       -0.24543859508007
H           41.61797341897056        4.52161283701657       -0.27189727364680
H           39.99353598341896        5.09452127572134        1.77570985055865
H           39.95825160054517        7.57296301011364        1.75466335038532
H           38.52417701593532        9.41322067571310       -0.89194544603006
H           37.95043785502842        7.51085334953670       -2.02792738643678
H           37.99237659803041        5.03946643997303       -2.01199609924176
H           36.36650044197337        4.44173119382446       -0.03660242021060
H           34.51530369264068        2.48819497340616       -0.20360290020565
Fe          94.70535797334804       -0.00753461628623       -0.06012005329045
C           98.08756986410019        0.02899571742522       -0.25645481673802
C           97.41902933143980        1.22175788973493       -0.43910210833717
C           98.07972918657349        2.46661771099686       -0.69068916901010
C           97.12107909000370        3.42247353395226       -0.68309414996975
C           95.87286697245904        2.75750915585651       -0.44342152966147
N           96.06778318676861        1.40961820804850       -0.30848404832142
C           94.65842577727940        3.41825442909807       -0.28738018087778
C           94.63904950092449        4.89878781942985       -0.37761305157047
C           94.96204764513647        5.54069156354651       -1.57302702829266
C           94.94138225315645        6.92415028870530       -1.66095996325517
C           94.60227824545235        7.68272921751415       -0.54301037809708
O           94.57390368266319        9.03966101809039       -0.58375843115072
C           94.27998761562664        7.05293577555592        0.65780526158605
C           94.29537721500792        5.67146830626362        0.73386173882668
C           93.46213929840278        2.75201861065032       -0.06441664302765
C           92.19217452688069        3.40831052829762        0.03483718745313
C           91.25338720565050        2.43495070020946        0.11169965911860
N           93.29671749578088        1.38712085224202       -0.02568636216364
C           91.95121953515468        1.18862047199970        0.05984635391301
C           91.29999296543589       -0.05124169237090        0.03565773863928
C           91.98501623647962       -1.27256003052036        0.01980823136033
C           91.32274997611911       -2.53887223854933        0.00084105176818
C           92.28931277757766       -3.48317112786615        0.09906121177142
C           93.53980669833126       -2.78863539447964        0.17981419515601
N           93.33659858509392       -1.43149138718998        0.09842989944883
C           94.76693459124475       -3.41896189085651        0.33421949440348
C           94.79190593623986       -4.89075349642575        0.50180053090125
C           94.14980129100088       -5.49327573983650        1.58663450801423
C           94.17322893928129       -6.86681931473026        1.75000078266850
C           94.83642883998048       -7.66287147022651        0.81767882709331
O           94.83654281370673       -9.00730097045239        1.00601187793747
C           95.47578877277589       -7.07666492412715       -0.27237113917362
C           95.45442941306968       -5.69898368138364       -0.42292588261671
C           95.97461255718407       -2.72802470050768        0.31615443076574
C           97.25658182609754       -3.34952851458067        0.48348776845049
C           98.18745620092686       -2.38467642206336        0.29400227354452
C           97.47329019277630       -1.17184146956630        0.03350994949840
N           96.12096286472851       -1.38707551152940        0.08354150944858
H           99.16964548656534        0.04012018439133       -0.32470771825941
H           99.14287852021630        2.57692859730326       -0.83447460133874
H           97.23879964356719        4.48592607944146       -0.81369462043692
H           95.21430893862198        4.95064736623974       -2.44704728684729
H           95.18636047400534        7.41849520518345       -2.59491031074335
H           94.81295156209066        9.37110919799136       -1.45975155753705
H           94.02129700491334        7.65562891395778        1.51958501729432
H           94.05460216939122        5.18115096419947        1.67041499514382
H           92.04605897272353        4.47605918629515        0.02443495626176
H           90.18272966125642        2.53611004869564        0.18755047696259
H           90.25565931919040       -2.67221616207737       -0.07572762628371
H           92.17601828936722       -4.55495942200017        0.10530293393745
H           93.64371450146756       -4.87326856879936        2.31808876915641
H           93.68342605328485       -7.33605654196441        2.59423829514766
H           95.32386211460967       -9.46146343993545        0.30554371786740
H           95.98571872874223       -7.70038084697133       -0.99872450909620
H           95.94056623947539       -5.24517531193372       -1.27935184629938
H           97.41255809228289       -4.38964997700174        0.71952872822516
H           99.26224532521969       -2.46627964963649        0.33020260979705
C           43.87587927784102        0.03592066572283       -0.05571079140305
C           45.10168064984954        0.04504209782521       -0.06412761335712
C           46.44209192808975        0.05047022857373       -0.07144944627188
C           47.67426990617189        0.05125628387375       -0.07669651703142
C           49.00979710131519        0.05308661951128       -0.07847447903937
C           50.24204917146024        0.05567012367485       -0.08009329611601
C           51.58214337373477        0.04837895177040       -0.07995654128634
C           52.80830316020997        0.04519284445870       -0.08465376191768
C           62.42987424224695       -0.02937510239746       -0.00582029651909
C           63.65674846962494       -0.04236167670429        0.00672612027930
C           64.99521596786037       -0.04863318239443        0.02172133559147
C           66.22847209478860       -0.05363124795255        0.03291661908534
C           67.56224922211379       -0.05705174642474        0.03771395776832
C           68.79562402127802       -0.06024000017692        0.03516003076344
C           70.13406615146647       -0.06056865639085        0.02721690536173
C           71.36105772154701       -0.05615479215889        0.01481913277017
C           80.96930370532037       -0.07969027787655        0.00587381640242
C           82.19615024650662       -0.08779772857623        0.01504745416342
C           83.53464726842719       -0.09649258578754        0.02384633422949
C           84.76777822704227       -0.09877748004545        0.02780618476022
C           86.10174420070922       -0.09534423749534        0.03263948800487
C           87.33475833356559       -0.08908305902193        0.03663705097780
C           88.67361604225920       -0.08083119370412        0.03634021537964
C           89.90019574294652       -0.06946989744031        0.03641847090810
Fe          57.62041617987118        0.01984698617996       -0.06475420517759
C           54.20876671452815        0.03970483621220       -0.08105197501311
C           54.88176892994883        0.98039704100581        0.70871171738007
C           54.21405953619356        1.92316690416437        1.54891176538172
C           55.17165718928342        2.74222231703963        2.04908312934208
C           56.41919211619526        2.30061086826591        1.50205777195191
N           56.22930396485931        1.18902835398935        0.71896608153877
C           57.62922139420765        2.96004920808274        1.68989593648180
C           57.62882430656951        4.23541654535701        2.44228292568095
C           58.37897579994538        4.37254750096269        3.61323351995615
C           58.37505224627460        5.56060715541562        4.32167994392068
C           57.62295755799730        6.63934156028910        3.85927462190862
O           57.64592995837688        7.79136044214821        4.57603490711483
C           56.87416799841883        6.51886100326166        2.69058663350327
C           56.87592433152756        5.32133689432651        1.99309679856284
C           58.83638593546271        2.47344205846551        1.20346582564851
C           60.08998687956914        3.15254004228967        1.33970055898348
C           61.04286513231263        2.31214069820940        0.86703199634470
N           59.01947846218973        1.25268262783687        0.59989747841696
C           60.36614873163915        1.13156156761855        0.43170536291241
C           61.03132103411387       -0.01494715355755       -0.02377009580133
C           60.35368888441815       -1.14449417838858       -0.50224296969962
C           61.01670313793215       -2.33454100783917       -0.93282751223315
C           60.05941942460003       -3.14876072840192       -1.44106033911417
C           58.81690080675585       -2.44535949007998       -1.32871019017656
N           59.00952551385645       -1.23524394147295       -0.70723709868935
C           57.61131566968970       -2.90540350476470       -1.84458044424881
C           57.60477351838531       -4.17151174061554       -2.61221681667663
C           56.82322256856081       -5.24941089690301       -2.19369118319352
C           56.81491879770931       -6.43754025289333       -2.90701050713958
C           57.58686550562017       -6.55684264863272       -4.06058923866656
O           57.60412737387654       -7.69956545092457       -4.79226960480655
C           58.36901287520897       -5.48660663831316       -4.49162790050780
C           58.37852366984860       -4.30789423756245       -3.76781371990721
C           56.40815761071040       -2.23079443019314       -1.66680618556884
C           55.16085651861064       -2.65187414986147       -2.23046206069787
C           54.20730310900806       -1.83045282899125       -1.72638285563547
C           54.87785183161754       -0.90405195818986       -0.87054984698285
N           56.22310841462261       -1.12622591376887       -0.87245901617228
H           53.15041908095652        1.94467041788131        1.72346739162450
H           55.05264849265628        3.56769818975672        2.73173037284160
H           58.95334707272725        3.52950646513194        3.98050706735634
H           58.94794771939338        5.66685457556093        5.23453231291547
H           57.08793381417987        8.46983845441265        4.17259815627723
H           56.29421475093134        7.36227008943351        2.33166185895400
H           56.30249616580437        5.23258978957295        1.07713282629439
H           60.21599016916538        4.14464914315222        1.74147573291830
H           62.10866856997551        2.46481800887133        0.81166564548113
H           62.07727073519561       -2.51029880460886       -0.85143143307654
H           60.17536898871119       -4.13868079353223       -1.85115896499034
H           56.23210914757262       -5.16247058648266       -1.28890264103828
H           56.21193851693049       -7.27457613221407       -2.57206552169501
H           57.02591641437635       -8.37302664592172       -4.40954794004880
H           58.96047744218404       -5.59196693953083       -5.39261444538509
H           58.97629693898737       -3.47109192289433       -4.11109482901981
H           55.03876754704834       -3.46670293269269       -2.92523370943372
H           53.14490655778988       -1.83916232331667       -1.90954002797965
Fe          76.16515299333129       -0.04068917751472       -0.03508961851432
C           72.75931083238204       -0.05016176408105       -0.00039503377072
C           73.43783430534774        0.88720123326235        0.79096690075002
C           72.78039515691657        1.81548859800229        1.65510475835516
C           73.73783066957971        2.65458867968567        2.12242963921375
C           74.97480225986992        2.23900811410336        1.53265381582442
N           74.78019234539448        1.12061263579276        0.75980979358919
C           76.17613377802149        2.92744720748597        1.66331253030867
C           76.18155854337094        4.21355679254575        2.39539344283402
C           76.99618208941615        4.38961654803068        3.51747220704705
C           77.00495710210458        5.58924715748116        4.20554211070248
C           76.20026819306106        6.64165122480102        3.77147507067499
O           76.23920076461842        7.80667186922079        4.46555180075207
C           75.38487746174188        6.48180042207019        2.65317042407473
C           75.37481780313627        5.27260007283979        1.97616959252903
C           77.37495789125504        2.45370162070092        1.14097152024277
C           78.62107057795399        3.15570150553425        1.21339156124024
C           79.57431584252080        2.30841873298641        0.75230868109772
N           77.56021412763603        1.21482517516011        0.57792660698114
C           78.90447376329702        1.10131849896832        0.38577774917969
C           79.57099176264312       -0.06747526136220       -0.00821614651217
C           78.89144778927444       -1.21893358009148       -0.42905399045874
C           79.54798892299817       -2.42755344772815       -0.81451487153051
C           78.59200967385507       -3.24053775312672       -1.32869348731943
C           77.35668084665363       -2.51955146553268       -1.26060622602735
N           77.54994285615129       -1.30216325732578       -0.65629283346211
C           76.15739994920767       -2.96513461521780       -1.80718434868445
C           76.16153960866517       -4.22273611797613       -2.58705814425830
C           75.35119071869586       -5.29598506576061       -2.21350502118341
C           75.36013444724307       -6.47657890931342       -2.93926493801332
C           76.17902483362597       -6.59328163078230       -4.06026018119232
O           76.21615861511476       -7.72890960310458       -4.80162308334263
C           76.98985579787450       -5.52728055979296       -4.44705654426880
C           76.98176937841856       -4.35654888274989       -3.71089815248112
C           74.95754936665793       -2.28180199543156       -1.64388911530193
C           73.71074629083414       -2.68908365102278       -2.21883719723286
C           72.75626186580529       -1.88020152849463       -1.69559560419447
C           73.42617488308846       -0.97169638918399       -0.82022483654872
N           74.77085661950777       -1.19021804257974       -0.83072270557002
H           71.72302705237412        1.81590570649134        1.86561684381842
H           73.62517862837620        3.47783582398190        2.80892036204367
H           77.61198749256371        3.56709818854681        3.86352438592144
H           77.62893458239878        5.72542455040533        5.08005740255716
H           75.64676108610742        8.46739923551439        4.08223037285000
H           74.76348733280265        7.30455695246975        2.31633120397208
H           74.75042719493732        5.15471073583608        1.09762006164125
H           78.74317454408464        4.16593445667101        1.56848495382598
H           80.63620505383773        2.47268417525417        0.66438928087733
H           80.60415711456270       -2.61443991898791       -0.70553545268353
H           78.70465544997981       -4.24059966152990       -1.71447989556196
H           74.72498186695488       -5.21284721705926       -1.33234052468492
H           74.73514233264696       -7.31043779428251       -2.63840548858517
H           75.61863698739224       -8.40187702493539       -4.44872857400867
H           77.61790959089046       -5.63029068741012       -5.32314540463401
H           77.60291311464772       -3.52324363425828       -4.01956887681038
H           73.58901878114415       -3.48815567773883       -2.93178048428710
H           71.69373301090592       -1.88649061292617       -1.87828672710166
