270
 energy: -515.832246782395 gnorm: 0.000299635161 xtb: 6.5.1 (b24c23e)
Fe          41.55779136949224        0.23204440159402       -1.57916069458588
C           38.22363822085128       -0.24909160974951       -1.22184800925910
C           38.67761476106794        1.04733767016106       -1.34857249302243
C           37.81803866812823        2.19243101522296       -1.37408620359946
C           38.62154945224611        3.28005073869644       -1.43259714219321
C           39.97322974789050        2.79825848113125       -1.41975898304074
N           39.99199622798363        1.42947985238142       -1.41389327639914
C           41.09265141815313        3.61907626696991       -1.34600444687492
C           40.89462255329500        5.08559123980624       -1.25137909243928
C           40.20717796939208        5.63891726498280       -0.17499690500455
C           40.02629452713808        7.01857561572029       -0.08561399693866
C           39.28811283040831        7.54849648029808        1.08827369843705
O           39.17537037178433        8.88492907489581        1.09213162076430
O           38.82453208358037        6.86560546827020        1.96536038764116
C           40.53187379428195        7.85586195261092       -1.08007177167939
C           41.21594495680596        7.30689329380475       -2.15328285542427
C           41.39940984689877        5.93398201611120       -2.23947359504625
C           42.38895426544106        3.12460963615202       -1.32722520339490
C           43.55415307252095        3.93875346547246       -1.14400398818813
C           44.62530918961626        3.11467455837847       -1.23372349896797
N           42.74898447015018        1.80944352391041       -1.49719628149314
C           44.11291458522367        1.80170366355657       -1.47559817528041
C           44.92861895654745        0.69635382627056       -1.73954628900712
C           44.41745128652275       -0.57838737976587       -2.00772103469777
C           45.23409670933213       -1.68739929441016       -2.39113546283646
C           44.41139175449184       -2.75899514869641       -2.49123039645821
C           43.09718324629667       -2.30530144251148       -2.14259094865287
N           43.11111693125612       -0.95246994418552       -1.89647979496367
C           41.99991966549813       -3.14086304427774       -1.99417428559197
C           42.18215956997018       -4.60005708017814       -2.18499012519970
C           43.05718815580084       -5.31909769133998       -1.36789451690421
C           43.22350157291364       -6.68624353966380       -1.54081242691462
C           42.52087859234554       -7.35152922816465       -2.53138665014939
C           41.64283731238859       -6.64399969651248       -3.35401477333426
C           40.90667696430658       -7.39380319577513       -4.40250449525018
O           40.07916255405740       -6.62880988153499       -5.12916324206883
O           41.02284219462705       -8.57636353028733       -4.60001914410521
C           41.47379826274507       -5.27205524593058       -3.17882336741694
C           40.73680251259920       -2.67244713621974       -1.64866972452457
C           39.60726118301673       -3.51991565817738       -1.39440730572742
C           38.55133283432220       -2.70561573473230       -1.16111065525830
C           39.03595401019582       -1.36269036816817       -1.27230938779375
N           40.38174185112543       -1.35616481429496       -1.53283823938842
H           37.15834435257727       -0.40347364965265       -1.09288261522644
H           36.74072372752087        2.14889731735625       -1.35325325249008
H           38.33713007027651        4.31872607408020       -1.47863499182619
H           39.81875474164798        5.00438139811784        0.61410332547774
H           38.68331214679427        9.14979436051932        1.88622992509681
H           40.38848090565859        8.92730273773381       -1.01011938094823
H           41.60961633451359        7.95179927204961       -2.93078391642510
H           41.92704173383362        5.50987988049300       -3.08646343120379
H           43.54292253787419        5.00063790844658       -0.95933910546498
H           45.67214715850374        3.35960526408726       -1.15327058358445
H           46.29677571123953       -1.63481262027864       -2.56558026429412
H           44.66228141700316       -3.76825498804476       -2.77448106748766
H           43.59729429020108       -4.80258142558965       -0.58232093540491
H           43.90315705975040       -7.23194510037896       -0.89624772710475
H           42.63887249171973       -8.41893726464184       -2.68007677046990
H           39.63869464852613       -7.19023487279464       -5.78761863371416
H           40.80003386695261       -4.72277996622839       -3.82571441106192
H           39.63351652424389       -4.59755038565873       -1.38994266047870
H           37.53005229075585       -2.97081757344517       -0.93832812362116
Fe          94.59621971031977        0.21806656590227       -0.19017450360227
C           97.90197562726311        0.09289540617679        0.49758685327065
C           97.32113452855546       -1.02432698211362       -0.06785163792591
C           98.04485243543776       -2.20927066956133       -0.41770405756816
C           97.13661509378838       -3.09348489349140       -0.89305234244082
C           95.85245302708090       -2.45984838872767       -0.79889110067027
N           95.98821887941838       -1.17451329415956       -0.34616881791822
C           94.64222190227468       -3.10212374758351       -1.03500946409404
C           94.65420858635304       -4.53167594355212       -1.42498424751229
C           95.22173643663947       -5.49384375295430       -0.59445228903599
C           95.23210973946811       -6.83612077699039       -0.97179610426755
C           95.85517753497892       -7.81401824336829       -0.04464262001148
O           95.80797788297093       -9.07859478929962       -0.48844456644338
O           96.36294633133112       -7.52452083736067        1.00835988889123
C           94.67185411527936       -7.22514474002599       -2.18845087566284
C           94.10286012874700       -6.26940461392929       -3.01552147263121
C           94.09094871873768       -4.93404118692694       -2.63860717138219
C           93.41492863590305       -2.46902992393113       -0.88509058727242
C           92.15021943485154       -3.13693072901992       -0.96796128135896
C           91.19547720149635       -2.18710266681354       -0.81642596125377
N           93.23034703753387       -1.12755900504765       -0.65815508412273
C           91.87873366157426       -0.94220491315639       -0.65318472442591
C           91.22714269024857        0.29687331956932       -0.63610902642272
C           91.91364021009821        1.51375546868781       -0.53413254523752
C           91.27827573498136        2.78835201571379       -0.65500603062472
C           92.23694425843441        3.72226029700822       -0.44278362874579
C           93.44955938164993        3.01254058883787       -0.16108826713728
N           93.24418411887086        1.65766961424979       -0.27630341565756
C           94.62488890216936        3.61371929715591        0.26606368183039
C           94.65418380167820        5.08498074553246        0.44515790079973
C           93.80141505015956        5.71006596236403        1.35744722290663
C           93.83422641973361        7.08748219432194        1.52571043478414
C           94.71499970586864        7.85712262626209        0.78442999838665
C           95.57324535717139        7.24366774844583       -0.12952483117967
C           96.50288298478189        8.10330365856024       -0.90462654273596
O           97.28922580815583        7.41953595540556       -1.74843832361148
O           96.56442194690567        9.30180239221390       -0.80222737997541
C           95.54382780243323        5.86060465822001       -0.29525752968585
C           95.77361584931144        2.88919596491247        0.56835846205050
C           96.95874598138792        3.45960862050855        1.14116202849969
C           97.86671911427941        2.45992276082625        1.23923540621351
C           97.23945151246110        1.28295373261104        0.71740890743892
N           95.94743383725302        1.55127702699360        0.34566940534418
H           98.95525665513362        0.04426083817867        0.74979454584920
H           99.11177841135705       -2.32726427518309       -0.31458682712766
H           97.30873736595080       -4.08851300744717       -1.26989219222303
H           95.64726439477462       -5.21297870525208        0.36272594767610
H           96.23425770806941       -9.65176733432022        0.16932142713131
H           94.68340524682949       -8.26809012705684       -2.48094205239134
H           93.66628046050015       -6.56454907020443       -3.96296873994695
H           93.65466746110833       -4.18960525092066       -3.29522363522299
H           92.01988185493370       -4.19777051736214       -1.10759076787766
H           90.12357576608026       -2.30247983706805       -0.82281831662334
H           90.23454905054396        2.93441619069407       -0.88221817358583
H           92.13961803635212        4.79536098156095       -0.46840982994023
H           93.12104683619495        5.10790376473624        1.94910487009011
H           93.16944742511924        7.55861645550509        2.24070993375001
H           94.75244580720194        8.93418877043856        0.90238064181802
H           97.86237896432247        8.04949685163471       -2.21476553086731
H           96.20392504625315        5.38693871894264       -1.01223396207906
H           97.06557175351334        4.49098889304151        1.43600627321696
H           98.87609679002261        2.49906799496610        1.61681645130833
C           46.31973101741442        0.87358319894267       -1.72680122856214
C           47.53365727408805        1.02775016421816       -1.66748443229197
C           48.85926150098144        1.19754708756839       -1.54562212482239
C           50.06915285850725        1.35555552862108       -1.38708990741231
C           51.37347229722957        1.52514134252205       -1.13229195531266
C           52.56290533958929        1.67652933716262       -0.86722494516562
C           53.83812832328498        1.86542908354303       -0.40342739968708
C           55.01678486919996        2.54609133253653       -0.58569383822057
C           62.55789276789795        0.70938241847724       -1.41503030841756
C           63.73421116629229        0.73608096704506       -1.76410858980735
C           65.03609961778116        0.75051176183031       -2.07363503672725
C           66.25334009384416        0.75426528662915       -2.27302757856656
C           67.57843864276472        0.75336393495364       -2.42416531320093
C           68.80954262567252        0.74831245859333       -2.49765175753052
C           70.14779400691309        0.74334074326338       -2.52708607727441
C           71.37449991221065        0.73337740154967       -2.51017727220261
C           80.95759034088476        0.54375829622556       -1.74963961830060
C           82.17560586862085        0.51027852928590       -1.61231830972948
C           83.50635686057694        0.47489039421365       -1.46058565977647
C           84.73045221291380        0.44319781689779       -1.32104483868275
C           86.05677274640051        0.41030355900410       -1.17151251172464
C           87.28138580434275        0.38076554554449       -1.03638301886228
C           88.61358709453802        0.35014539515923       -0.89567269744367
C           89.83321132870930        0.32432818611997       -0.77266064129548
Fe          58.09475705053558        0.70750281802442        0.18449911562431
C           54.79206417819042        1.08456693215448        0.33542542164589
C           55.27009429313472       -0.22732096542941        0.14059755169145
C           54.44202223362251       -1.37898943990324        0.02450630715651
C           55.28218246317092       -2.44569689944340       -0.07272207866131
C           56.61467782393534       -1.92329145362012       -0.07206965645422
N           56.58115708810686       -0.55902740886700        0.12075411036234
C           57.73398812145719       -2.62551745918310       -0.49754281907120
C           57.58826051666311       -4.08187141950160       -0.73259121757354
C           57.32371943426750       -4.93065922389084        0.33795601046768
C           57.18241909388050       -6.30237462888263        0.13280490375766
C           56.90493533769841       -7.15741704928844        1.31562157630467
O           56.80148605725343       -8.46042493036127        1.02087933907627
O           56.77935931181194       -6.74137753700437        2.43845813311387
C           57.29641627993234       -6.83208379607960       -1.15218369532036
C           57.54700727173360       -5.98608150990262       -2.22115682884121
C           57.69269179154666       -4.62122131534694       -2.01650041115330
C           58.94072456905600       -2.00397271108335       -0.82362304770579
C           60.04465033267730       -2.63956176729863       -1.47275740675775
C           60.97975123111885       -1.67769169577569       -1.68879569537483
N           59.22163067709796       -0.67775399991053       -0.61063455839818
C           60.46894703979875       -0.47361716389249       -1.11636773661581
C           61.25245740828830        0.68067174004527       -0.91535009623543
C           60.86033856877192        1.69900078738772       -0.03418110248961
C           61.74580202531085        2.68851595201209        0.50692168309111
C           61.07550741322790        3.30940847962500        1.50712385759885
C           59.75780220763957        2.74114822245868        1.53879654899179
N           59.65120830412427        1.75519357400059        0.58551377658799
C           58.70233050307301        3.20203820848221        2.31072249061109
C           58.98030095852346        4.18945500121097        3.37512781025609
C           58.40176129118477        5.46116385097820        3.35949518815660
C           58.68483198863611        6.37796334167698        4.36224694832174
C           59.54925570012150        6.04010967260461        5.39014711098150
C           60.14248207660238        4.77699111230983        5.41078767470421
C           61.07361899417730        4.45672510523739        6.52368010701248
O           61.59866748177927        3.22663804261943        6.44491761261464
O           61.34572235659532        5.21533377987502        7.41791094573938
C           59.86072829716054        3.85703771365389        4.40405345497779
C           57.37891920219759        2.85672882909012        1.99377974034376
C           56.20174052050980        3.43933141810402        2.59851841095673
C           55.14475405035589        3.05788317767747        1.86818675000968
C           55.64754609403369        2.21679591233060        0.76673957237356
N           57.04672995629450        2.04971247012739        0.97141856424452
H           53.36412045232574       -1.36678923722379        0.03708562197712
H           55.02500956792679       -3.48627036147067       -0.18589756133924
H           57.23812625559150       -4.53500642906801        1.34409034252974
H           56.62127829271635       -8.94977709618903        1.84014572377977
H           57.18404434159577       -7.89784059089909       -1.31007856631955
H           57.62722476281401       -6.39017222597051       -3.22388200000755
H           57.86853462352403       -3.96345291789315       -2.86011855398735
H           60.09837965324471       -3.68427520500852       -1.73187578336252
H           61.94421540521891       -1.77371716605452       -2.16092637905314
H           62.75771955560901        2.85466158286464        0.17397910599403
H           61.41883549154397        4.10440786804582        2.14893580339514
H           57.74735481755398        5.74150704766118        2.54181848293075
H           58.23109595302495        7.36203750521680        4.33462968823406
H           59.78056919951568        6.74478742761396        6.18086996660597
H           62.19182966741591        3.09352129206557        7.20230077769588
H           60.31468924051230        2.87335178276374        4.42606533332125
H           56.20948143518518        4.05544957220467        3.48324753179035
H           54.10183426480287        3.30305250240879        1.98398666773837
Fe          76.17155803516130        0.66529250950884       -2.20998232877806
C           72.77213395293951        0.72417794436869       -2.44991800638747
C           73.46595326641580       -0.35875619405048       -3.00581220196293
C           72.82856409069170       -1.42952049307094       -3.70613688169161
C           73.78909342235147       -2.35023162571206       -3.96349439390669
C           75.00700221672462       -1.84306779582172       -3.40413637447202
N           74.80087546194318       -0.59433761083938       -2.86885425596679
C           76.19255974532702       -2.56159412104787       -3.32897870230875
C           76.20516084787123       -3.96258101906072       -3.81229793949090
C           75.37251705666199       -4.91684691162431       -3.23472838321415
C           75.39128600122316       -6.23632599353052       -3.68477723500924
C           74.48459192196817       -7.20918291773398       -3.02434379412864
O           74.59118470849128       -8.45489846707362       -3.50874066265379
O           73.71805694027469       -6.93068276453240       -2.13824932834874
C           76.24329490163493       -6.60836979526009       -4.72452116736526
C           77.07046796695127       -5.65882691105501       -5.30369951492619
C           77.05596313124707       -4.34703616413680       -4.85141799940603
C           77.36775643226197       -2.03186612017483       -2.80785445283564
C           78.58298128666273       -2.77208638589696       -2.64488775024429
C           79.52641124565001       -1.88828081952805       -2.23638354354219
N           77.55734608012918       -0.72041298268764       -2.45070097770873
C           78.88255168974464       -0.61590077675216       -2.14604614826799
C           79.56568874815177        0.58131646067934       -1.89776745996184
C           78.91151160210936        1.81567746897613       -1.79354197021247
C           79.59237640581537        3.05727561844991       -1.60240874925854
C           78.63629504606841        3.99641568908857       -1.39806331001447
C           77.37538113094817        3.31895739411315       -1.45119996610372
N           77.56019548564987        1.99169376709233       -1.75006257976263
C           76.15589556026480        3.90944634167864       -1.14072851944192
C           76.15088746539975        5.31332424849828       -0.66582714034679
C           75.45236844596909        6.29818427698868       -1.36764550154079
C           75.44778494580265        7.61312351803252       -0.92331678908388
C           76.13517010118947        7.95993677876177        0.22778505459496
C           76.83494342338500        6.98402936637414        0.93907078686256
C           77.55782223924199        7.39504072571868        2.16935672804788
O           78.20499734104814        6.38807478554805        2.77287076049736
O           77.57666293299152        8.51885524709265        2.60178279706191
C           76.84351821082520        5.66495176193246        0.49099431664117
C           74.94405782383411        3.23824120335688       -1.23973479666449
C           73.67994136320875        3.79345186652085       -0.85767235189248
C           72.73265083731123        2.89589945471363       -1.22400839728041
C           73.42171044385981        1.79473288927844       -1.82045063156909
N           74.76987384243043        1.98940761356317       -1.78495684307517
H           71.78092732439126       -1.45943410942103       -3.95881297768120
H           73.69096100418959       -3.28981157815232       -4.48229811652662
H           74.71314028940907       -4.64823577975464       -2.41664060272885
H           73.97161217986971       -9.02689628569287       -3.02719345535509
H           76.25476858138309       -7.63350421503629       -5.07436433052813
H           77.73264392848402       -5.94051358505748       -6.11455320658424
H           77.69827057351952       -3.60683257102482       -5.31524418699672
H           78.69055366070390       -3.83063872859099       -2.81697661239714
H           80.56696380046141       -2.06655005537352       -2.01789728318937
H           80.66330818248210        3.17944694805494       -1.62245865786690
H           78.76457552363159        5.05278811777717       -1.22706443160195
H           74.92349623435551        6.03064075639903       -2.27555917431137
H           74.90526940781787        8.36803702881589       -1.48088424065427
H           76.14063680197269        8.98195405593052        0.58950974001219
H           78.64814335502992        6.73555608868453        3.56393879860579
H           77.37628544015374        4.90635502141148        1.05206676643477
H           73.54431781481620        4.74418067412834       -0.36834128790702
H           71.66262226668871        2.96216917965911       -1.11052867014085
