312
 energy: -492.626690813026 gnorm: 0.000973287331 xtb: 6.5.1 (b24c23e)
Ni          45.61758257171554        0.02106069704946       -0.03955348180235
C           42.21518589716916        0.10131901650600       -0.11179191429134
C           42.87857596767262        1.19610386538589        0.40162532077321
C           42.21110058666425        2.35613509111034        0.90990803472448
C           43.17703718658890        3.21438733462444        1.31278963791933
C           44.43334067591165        2.57796711478126        1.04554777041066
N           44.24086368434484        1.33650098128257        0.49317951806434
C           45.65978260726052        3.17175966452132        1.30090335756588
C           45.67625710528703        4.54352735757708        1.88382265625312
C           45.63814556241069        5.65862140129849        1.04148204218353
C           45.58317991190449        5.47185308331035       -0.45137030651771
C           45.64803256078633        6.93321414440355        1.59539159483589
C           45.69354895725360        7.11330302182968        2.97419078462064
C           45.72251130249266        8.49940712630027        3.55941157802700
C           45.73182217792345        5.99645467945800        3.80236980263072
C           45.72310809015526        4.71218558673137        3.27049122728547
C           45.76081817237694        3.50783954167711        4.17300988318041
C           46.86880002329212        2.55167797647580        1.02903123485706
C           48.13846519119134        3.16539209020416        1.27389243307198
C           49.08294354693927        2.27022117624036        0.89817079511923
N           47.03362168638643        1.28943955942063        0.50419378129491
C           48.38811012613657        1.11330039834315        0.42798094266316
C           49.04178618893644       -0.03488738430863       -0.02725341578906
C           48.35447413131102       -1.16705816275189       -0.47270213618484
C           49.01434266693061       -2.35556187800448       -0.91352555062887
C           48.04343337510872       -3.23129017349211       -1.26718062101399
C           46.79284663021807       -2.57098310693933       -1.04620415389058
N           46.99544076983484       -1.30258220335630       -0.55026543124267
C           45.56641593997890       -3.15145587612102       -1.32747196864039
C           45.54132244704306       -4.53600552140136       -1.87901717697200
C           45.61972599301959       -4.73854715800892       -3.26035492487080
C           45.73218449752262       -3.55800859968070       -4.18779249986464
C           45.59222224832098       -6.03363312899922       -3.76264774514933
C           45.48862810628153       -7.12939669081640       -2.91062864340209
C           45.44544715550516       -8.52351092302148       -3.47568919911598
C           45.40972429998588       -6.91570744207399       -1.53912238923674
C           45.43492901008396       -5.62837113257326       -1.01410687860350
C           45.34641110045748       -5.40476192717296        0.47203946293829
C           44.35947945894456       -2.49961945884818       -1.12637230264507
C           43.08663651609098       -3.08188974964255       -1.43554379914037
C           42.14708460626512       -2.16681831420807       -1.10113454318732
C           42.84705525968666       -1.02944855790067       -0.58538132630491
N           44.20352441053765       -1.23773478069076       -0.61001496146753
H           41.13206185154586        0.12833312005181       -0.13807079723546
H           41.14005928393754        2.47727064826180        0.94563949232919
H           43.06903599311391        4.19323356158670        1.75159952497438
H           44.67156504783028        4.94105371508595       -0.73277798241113
H           46.43326595532390        4.87771743441542       -0.79152536631641
H           45.59948775989272        6.43279568462727       -0.96468586531359
H           45.61739639959966        7.79894714143634        0.94189220668492
H           45.30008124955737        8.50645657987408        4.56441135884039
H           46.75367482637807        8.85507267148447        3.62138206236667
H           45.16151542159898        9.19576702353357        2.93552420391746
H           45.76651477125804        6.12729882322829        4.87901045356348
H           46.65222918461667        2.91094911726506        3.97094101304241
H           45.77094473801400        3.80659351438035        5.22075709735883
H           44.88903642020015        2.87484562073849        3.99727866959535
H           48.27189974276230        4.15490104705673        1.68021518113403
H           50.15609231717927        2.36731007520321        0.93195661109349
H           50.08407279183338       -2.48676190564084       -0.94041506448716
H           48.14713216246741       -4.23510672706350       -1.64617586691347
H           44.88534374913240       -2.88364541876786       -4.04770507997688
H           45.75409989717230       -3.88100328123743       -5.22814107118261
H           46.64411646427627       -2.99617124543009       -3.97689602408219
H           45.65317196066557       -6.19207409848640       -4.83442738965556
H           46.18565622498206       -8.64054303968411       -4.26826532569247
H           45.63913846662437       -9.26526627779843       -2.70088988233526
H           44.46010199442119       -8.72275926454333       -3.90298676316014
H           45.32822085437375       -7.76348886967626       -0.86675814623758
H           44.44581204500525       -4.83765446086772        0.71569015253607
H           46.20640168261324       -4.83099707659338        0.82209438625305
H           45.31635755128554       -6.35327718998684        1.00738865042235
H           42.95045821914513       -4.06545617327616       -1.85557396836320
H           41.07414197134124       -2.23663574391646       -1.18483454529887
Ni          93.72455808265514       -0.01110955227601       -0.08338895870181
C           97.12603909916041       -0.02501590268635       -0.19023174448062
C           96.46077228063211       -1.17491085336940       -0.56120504364492
C           97.12576374019953       -2.37238036818394       -0.97769550412162
C           96.15779974530160       -3.26671751888574       -1.28627268238864
C           94.90271159816915       -2.61116238137496       -1.06302427151862
N           95.09793806851286       -1.33212718279970       -0.60539854659820
C           93.67576356195879       -3.20155694765940       -1.32394536523812
C           93.65682722183054       -4.59326420912829       -1.85728798515010
C           93.73304431985812       -4.81313145167546       -3.23569998897910
C           93.83291026587794       -3.64419020223103       -4.17916529648090
C           93.71959646082223       -6.11544149654429       -3.72101437037663
C           93.63336720315422       -7.20043998463981       -2.85457549472148
C           93.60040542833565       -8.60481923381480       -3.39423111314357
C           93.55811202555714       -6.96946152398792       -1.48492957433707
C           93.56952425692586       -5.67559333585790       -0.97715077637085
C           93.49224412715498       -5.43305288656897        0.50663125826709
C           92.46857557695668       -2.55181387958934       -1.12185091788474
C           91.19858350508093       -3.14233285385496       -1.41685935651056
C           90.25611520428421       -2.23333781625799       -1.07011733472766
N           92.30601117105708       -1.28625797897737       -0.60471709412091
C           90.95238417887487       -1.09405862630616       -0.56048720369961
C           90.30125877688639        0.03161261847825       -0.04857582454738
C           90.99155714318752        1.13186848581889        0.46673696715339
C           90.33514186261158        2.27452596520246        1.01966300668560
C           91.30793711813489        3.14382042134894        1.38398782732590
C           92.55627998191041        2.53016290862583        1.04642870121914
N           92.35073436758589        1.28537825658339        0.49483391555546
C           93.78198439083592        3.15192821015290        1.22387369914702
C           93.80892479846386        4.52653263137884        1.79969627647664
C           93.70233534158756        5.63760616200921        0.95741156549374
C           93.55693291698503        5.44328245877243       -0.52837027691251
C           93.73180330335082        6.91424022489734        1.50488982803911
C           93.86465720041667        7.10105078815979        2.87771409902551
C           93.91023497022911        8.49220723338922        3.44981696550419
C           93.97106121772413        5.98887836499766        3.70525430185325
C           93.94467835314136        4.70194065853220        3.17936171380434
C           94.06294613909886        3.50270379142311        4.08175484695587
C           94.98608773224753        2.55644773022121        0.88069097855146
C           96.25838997151654        3.19802764507103        1.03657115642827
C           97.19610856194103        2.30881477034122        0.63392138059315
C           96.49564723931287        1.12531820279801        0.23605483493025
N           95.14025607626192        1.28898449118059        0.37770771820080
H           98.20914463615298       -0.02840755020741       -0.22820184534047
H           98.19667102748284       -2.49209088916501       -1.02125561112005
H           96.26354770987093       -4.28025064321794       -1.63831434111743
H           94.74996834499227       -3.08283666176955       -3.98961513226104
H           92.99060582884945       -2.96539887699987       -4.03393746384283
H           93.83787855495908       -3.97989960926081       -5.21571325068366
H           93.77969458893055       -6.28645326132478       -4.79088881919829
H           94.01315633238025       -9.30897903534485       -2.67145882233005
H           92.56900682891118       -8.89818132368837       -3.60354312226234
H           94.16802855505527       -8.67768225368473       -4.32227422547201
H           93.49198774460493       -7.80981353101269       -0.80161470917156
H           92.59965243684390       -4.85346614496231        0.74970341344581
H           93.45671282472391       -6.37460009742282        1.05376287853428
H           94.36087501909540       -4.86426514345190        0.84357509547444
H           91.06336995041882       -4.12660154285249       -1.83518792402831
H           89.18336078293105       -2.31328685910429       -1.14104179515958
H           89.26610434845924        2.38145414251860        1.10911611147286
H           91.20697418700293        4.11674961814316        1.83704132765848
H           94.39802769996805        4.86824092637909       -0.92000444399916
H           93.51790280666160        6.40213454038959       -1.04433435829241
H           92.64256518404541        4.88958362984942       -0.75003800088254
H           93.64899944717463        7.77710865001666        0.85210450935776
H           93.16941903581552        9.13137249325603        2.96781475613191
H           93.71970026114636        8.47964745746141        4.52294770958323
H           94.89568004280815        8.93254678576375        3.28167406948998
H           94.07521093127808        6.12421500537044        4.77684273623892
H           94.96346822120242        2.93493583506064        3.83934816962581
H           93.20553424722149        2.84056188981794        3.94854983286227
H           94.11286164206689        3.80560533299619        5.12720648165231
H           96.39576009609398        4.20068049366422        1.40833560597170
H           98.26825082590774        2.42197834184523        0.60551446295500
C           54.24528913666167       -0.07979281065679       -0.03367884293308
C           53.01756188567540       -0.07430422561547       -0.03154985902080
C           51.67140287798868       -0.06254456627582       -0.02874369410858
C           50.44821539712335       -0.05396663897758       -0.02900519586052
C           55.59137637341480       -0.08529450909896       -0.03265202891824
C           56.81474703684471       -0.08761816576908       -0.02635997668696
C           70.28402467269801       -0.00636019613116       -0.03985779233541
C           69.05558376646300       -0.00760133363464       -0.03424368605770
C           67.71040233615889       -0.01025239926270       -0.03666820443282
C           66.48642953044282       -0.01564079258436       -0.03572174441736
C           71.62920493358918       -0.00635313921046       -0.03530633690259
C           72.85315330003077       -0.00311472414864       -0.03187533184346
C           86.32534830776524        0.06131176308135       -0.03665962756267
C           85.09763677265785        0.06002434215361       -0.02892548512919
C           83.75145943921692        0.05529040952238       -0.02994464540397
C           82.52810837290626        0.04839385556484       -0.02299692715794
C           87.67162038017013        0.05750176754313       -0.04032814145014
C           88.89480375986038        0.05047236972979       -0.04189424339427
Ni          61.65109562452353       -0.06260985941856       -0.02936153913546
C           58.22066957809392       -0.08511801829857       -0.02633390912234
C           58.89274821661552        0.14171261208676        1.17798097943208
C           58.21719949787736        0.36905777197657        2.41617366055286
C           59.17573030039902        0.48382331483193        3.36675563029931
C           60.43360895864270        0.32734559098247        2.70315788874946
N           60.24931445860927        0.13123359974975        1.35330724609906
C           61.65087848608044        0.33773274108066        3.36553187039041
C           61.65226825219726        0.50876985000812        4.84621837451449
C           61.74230127783129        1.78892848754140        5.39993980919938
C           61.83349219632697        2.99240858823040        4.50012729808018
C           61.74581167583946        1.93593951992000        6.78221433775423
C           61.66042282276808        0.82822886551251        7.61900861976434
C           61.68730141401988        0.99626793667727        9.11416589055698
C           61.57049422913066       -0.44103222056842        7.05623822867166
C           61.56471741706855       -0.61204211462237        5.67707214729798
C           61.46408266413578       -1.98805312850217        5.07473971637958
C           62.86802884085969        0.19891470411994        2.71779291348067
C           64.12631969170886        0.20884361807510        3.39868872638041
C           65.08509004597850        0.11000334847865        2.44651935584821
N           63.05274480367456        0.07939318829743        1.35869041710804
C           64.40929216441894        0.03877035895072        1.18994451585616
C           65.08166914213734       -0.02646705202565       -0.03440454876641
C           64.40720416375852       -0.10653023910769       -1.25672067795859
C           65.08058098317198       -0.16591878795702       -2.51520640066452
C           64.12150787923952       -0.29185247361517       -3.46389638209370
C           62.86545780235611       -0.30951140227722       -2.77902351586480
N           63.05143458271029       -0.17928903004349       -1.42109204017937
C           61.64981232264822       -0.47936453535786       -3.42225511529087
C           61.65034455381448       -0.65640669069002       -4.90222497246802
C           61.51797174101873        0.45762641967577       -5.73638250463543
C           61.36811363797715        1.83102949302911       -5.13833175749464
C           61.52450632718296        0.28227369090766       -7.11497382207958
C           61.65873401813574       -0.98472575388926       -7.67399932118117
C           61.68659193679370       -1.15650778926173       -9.16871079790337
C           61.78732594637148       -2.08579731471842       -6.83397451496461
C           61.78413438941663       -1.93431948705517       -5.45215481486587
C           61.92218504468741       -3.13068688493995       -4.54882353618699
C           60.43432937279441       -0.48885543856172       -2.75660698129323
C           59.17774898285957       -0.67004697610183       -3.41636830239929
C           58.21917800751654       -0.55844957592841       -2.46545055502225
C           58.89353329057145       -0.31094836173568       -1.23047961268236
N           60.24956836646972       -0.28481137087917       -1.40798198219034
H           57.14632604040871        0.42515426048423        2.52710458747295
H           59.05822690702599        0.65548352263678        4.42443991535322
H           62.72692086641344        2.93156178714122        3.87574627351535
H           61.87686114553630        3.91189111652806        5.08302898862342
H           60.96669034041795        3.03762462791069        3.83817578811146
H           61.81498166885840        2.92979495402429        7.21221461107077
H           62.71126831954633        0.89350931485314        9.48100379712132
H           61.07603410401384        0.23583430537528        9.60098401006334
H           61.32069845538066        1.98176668803032        9.40193832069957
H           61.50260167274892       -1.31060434017213        7.70175512660339
H           60.56505125758169       -2.06744426415505        4.46053060636189
H           62.32472358469980       -2.18530577353491        4.43293585611769
H           61.42460962534454       -2.75106701696825        5.85150707391972
H           64.24398385134411        0.28591318192849        4.46740696300191
H           66.15619670564519        0.08940141917757        2.56691475796360
H           66.15048814688113       -0.11948267921268       -2.63906953450406
H           64.23761784696975       -0.37005085639764       -4.53270390493767
H           60.46017677630065        1.88325694742366       -4.53431267335914
H           61.31279697181979        2.59084593304332       -5.91725811918459
H           62.21484604676125        2.05658144095988       -4.48750461244404
H           61.42225636048309        1.14659424485231       -7.76301038608471
H           61.35227220051257       -2.15459540870449       -9.45238361710555
H           62.70547931916234       -1.02078655419986       -9.53898888372555
H           61.04885421392280       -0.41841429561882       -9.65594557248051
H           61.89042744980384       -3.07796980942475       -7.26105210276950
H           61.97887110580752       -4.05157021825714       -5.12837059103208
H           61.06906825948627       -3.19479703404118       -3.87090829417352
H           62.82504904607498       -3.04399016718787       -3.94122250799861
H           59.06101985032702       -0.85463031684995       -4.47195590689623
H           57.14905466257763       -0.63082784608953       -2.57404373144307
Ni          77.69037901843200       -0.00106692386414       -0.02384767245362
C           74.25802226953614       -0.00508841772506       -0.02907010849906
C           74.92937099868081        0.17021323553065        1.18485463007764
C           74.25108574773608        0.34959522825613        2.42925422313231
C           75.20822901939707        0.45243691460384        3.38251669890535
C           76.46807997996160        0.33765858178663        2.71422339112235
N           76.28582828324456        0.17096762046390        1.35974273825809
C           77.68551534326227        0.37864446581446        3.37477937985721
C           77.68188524580971        0.53273953464169        4.85738698179439
C           77.73451631794447        1.80788306992097        5.42727849899302
C           77.80031841029854        3.02434978560866        4.54284621538063
C           77.72453438653467        1.93781824493491        6.81122948184402
C           77.66246734836000        0.81798688507033        7.63390052591318
C           77.66944991626283        0.96862834669550        9.13114956256292
C           77.61385061031920       -0.44628743173738        7.05516600954313
C           77.62242751794646       -0.60033266606839        5.67401053858288
C           77.56689902921219       -1.97125558822282        5.05446803392597
C           78.90552231544896        0.28497378335582        2.72427645282989
C           80.16373906902741        0.33701967758517        3.40348831419300
C           81.12373521998529        0.24702759954313        2.45183786535753
N           79.09134774525575        0.15513696755040        1.36661885932686
C           80.44861485232799        0.13717443454765        1.19754086310495
C           81.12210950062810        0.03401245926817       -0.02268976026543
C           80.45155692786905       -0.08875259200635       -1.24273081780268
C           81.12962350301642       -0.19636853850737       -2.49563113847938
C           80.17255048288763       -0.32323382098607       -3.44596881789773
C           78.91313975907343       -0.29201419489495       -2.76771734338634
N           79.09508418187674       -0.14045573459447       -1.41180439976112
C           77.69608672252637       -0.41765183241228       -3.41837538965785
C           77.69860079713310       -0.60403504714815       -4.89724228700298
C           77.61782938419196        0.50798161661747       -5.74055089309336
C           77.53336321609119        1.89182846702506       -5.15385426370987
C           77.61576518366621        0.32108430598013       -7.11767884014720
C           77.69191967642078       -0.95527621543217       -7.66621536628570
C           77.70582848764367       -1.14121174382770       -9.15943535429416
C           77.77536380892239       -2.05376711801318       -6.81716324077573
C           77.77938307501820       -1.89088870360694       -5.43668816072634
C           77.86930390091875       -3.08445090207229       -4.52363105953551
C           76.47659881975207       -0.37646227267511       -2.76175514737193
C           75.21905041030563       -0.50267434116325       -3.43231106341358
C           74.25865277055365       -0.38273916822667       -2.48431434814832
C           74.93282572170271       -0.18666839792470       -1.24019929906814
N           76.28976239012890       -0.19007358675705       -1.41050399034149
H           73.17958193289633        0.38694608695782        2.54180114072528
H           75.08869274129992        0.59368201099906        4.44443835267120
H           78.70100858373355        2.99579265939546        3.92660153712112
H           77.81293762746756        3.93747958356404        5.13709949488619
H           76.93894599690653        3.05372404728681        3.87300379677462
H           77.76333530856894        2.92777793492328        7.25384476529249
H           78.69299915900227        0.89985254651226        9.50693936624608
H           77.08243626631443        0.18008471475064        9.60286097797742
H           77.26337865128791        1.93616207234090        9.42686279276421
H           77.56625336537388       -1.32537733292685        7.68951156084869
H           76.67306751750702       -2.07137344930967        4.43572819484993
H           78.43567115041259       -2.13333348440406        4.41376061116380
H           77.54872794984999       -2.74467103612680        5.82168196270917
H           80.28031776439055        0.43244105342135        4.47084921298385
H           82.19517017441953        0.25282372578121        2.57102763135382
H           82.20087805161296       -0.17728020086824       -2.61486956044670
H           80.29177655972849       -0.42888789248635       -4.51206336527399
H           76.63302236681582        1.99061389077035       -4.54439443661161
H           77.50759809566753        2.64661353656983       -5.93919103751480
H           78.39405850482623        2.08422616366951       -4.51065413538200
H           77.55176044695038        1.18370939082900       -7.77283934318073
H           77.32429696780322       -2.12520865089357       -9.43263959669758
H           78.72819316064019       -1.05619964974249       -9.53512167496764
H           77.10064274068850       -0.37879959233790       -9.65073040793470
H           77.83600230404404       -3.05292115513303       -7.23602069235310
H           77.89828074178152       -4.01109109811470       -5.09599762510788
H           77.00983974898192       -3.11403120347052       -3.85138022823494
H           78.77038314105238       -3.02427611157202       -3.91020765477800
H           75.10299351083735       -0.66083670877800       -4.49223470751734
H           73.18753178296130       -0.42091749817691       -2.60015895690791
