187
 energy: -341.336171989925 gnorm: 0.000701657499 xtb: 6.5.1 (b24c23e)
Ni          32.04756375707241        0.01374684996750       -0.03016102518332
C           28.65578879265430        0.07185173137536       -0.15929790753940
C           29.32083996179356        1.27808727141051       -0.09381001120718
C           28.65334539703477        2.54351355705501       -0.05870333568194
C           29.61261417180393        3.48333758614686        0.10676413150691
C           30.86742818927434        2.79131190509343        0.15910332965461
N           30.67885554979964        1.43879950876235        0.02388531256338
C           32.08473620165675        3.41552159829464        0.39824689432320
C           32.10249118832920        4.88427047823038        0.59883950221680
C           32.47382645342807        5.42214576155908        1.83428514439415
C           32.48799172376978        6.79087492559477        2.02217710221438
C           32.13651427779686        7.65206218592430        0.97749182233079
C           32.16221195803696        9.10910790598729        1.20282683218816
O           32.47262046260332        9.61854686557846        2.24895590228736
C           31.76856427939453        7.11493174243323       -0.25830633124793
C           31.74959450306754        5.74385687955754       -0.44441204533753
C           33.28817152675371        2.72558035789324        0.45165276825348
C           34.55667254059464        3.36058517158607        0.64549522634439
C           35.49928599440334        2.39576937087940        0.52514507088062
N           33.45322972193618        1.37748584243676        0.22638312134236
C           34.80563346716702        1.17641289401479        0.25671402597712
C           35.46082174193214       -0.03276367960498        0.00953064259422
C           34.77803794282022       -1.22892726348137       -0.22378738223795
C           35.44215577756336       -2.46823403821365       -0.47483386617186
C           34.47700692090871       -3.41345593749557       -0.57106869087113
C           33.22517649627137       -2.74730355050846       -0.37385574719400
N           33.42095246977947       -1.39742573937708       -0.18993920378234
C           31.99914235991539       -3.39925939313901       -0.36704218675611
C           31.98124654972255       -4.87384400059021       -0.50784920993751
C           31.35760633454657       -5.46990791652450       -1.60730984135748
C           31.34431054055613       -6.84667454050625       -1.74384850867772
C           31.95011760894202       -7.65513656915858       -0.77916489204858
C           31.94739015018015       -9.12483925772480       -0.89971398977974
O           32.45238349376745       -9.86285773290292       -0.09321932743931
C           32.57188823350552       -7.05868929528313        0.32275887806711
C           32.59013896085676       -5.68360427696564        0.45546586648497
C           30.79004068926288       -2.72610455585648       -0.24738802119908
C           29.51299642386236       -3.37752204611631       -0.21545765992433
C           28.57663637323432       -2.40155089514203       -0.17130543006610
C           29.28224633608606       -1.15663424604141       -0.15869604028780
N           30.63888864993870       -1.36399086625134       -0.17818718804870
H           27.57291485490948        0.09011092016511       -0.19817279591773
H           27.58576391721934        2.67343298820696       -0.13683757745138
H           29.49323728792927        4.55048465777039        0.19956731259992
H           32.73702075032880        4.75596512454088        2.64806104488684
H           32.76963855757145        7.21720877431029        2.97901086935954
H           31.86749978188606        9.71265408195403        0.31798511778560
H           31.49843434625312        7.77633228667207       -1.07511315609709
H           31.47474358797270        5.32941309560547       -1.40780178587145
H           34.69863363059730        4.41246368481569        0.83172082361434
H           36.57069710112820        2.48701141654295        0.60112679831561
H           36.51037062899473       -2.58399478974315       -0.56168155269515
H           34.59175091411251       -4.46700319921352       -0.76643520100279
H           30.89733170967917       -4.84405119075676       -2.36358248675460
H           30.86324791510717       -7.30114134156126       -2.60386809987527
H           31.43501235975127       -9.50669555178865       -1.80840308172152
H           33.03693383353663       -7.69476627716467        1.06826052139558
H           33.06387595124423       -5.22408508696840        1.31555434386946
H           29.36564449941952       -4.44521532545161       -0.22169512423881
H           27.50279165001577       -2.49540622244284       -0.14354485093818
Ni          58.91296269206627       -0.03115498802344       -0.08320744988202
C           62.30658181565537       -0.07159351314870       -0.19198815858561
C           61.64276429442823       -1.27645212595761       -0.28663597825695
C           62.31297135733403       -2.53579393392732       -0.40065747914246
C           61.35384967640346       -3.48959355838551       -0.36808254668060
C           60.09635986439897       -2.81019520795027       -0.25272731318470
N           60.28359992584004       -1.45142320969246       -0.20935683299721
C           58.87461179839965       -3.46016815045706       -0.13809758538692
C           58.85464169546278       -4.94251312055406       -0.13494486620103
C           58.43973060779528       -5.63761073918205        1.00453541881469
C           58.42150736082562       -7.01909624362708        1.00981393234947
C           58.81222795164898       -7.73601663204649       -0.12596189612140
C           58.77906567632384       -9.20986948746027       -0.09681522744890
O           58.42945631142665       -9.85218675719908        0.86010315313162
C           59.22414052041505       -7.04166507228777       -1.26584308850972
C           59.24709970458425       -5.65806345829349       -1.26883017638526
C           57.66695159115059       -2.78316920021608       -0.03614600420096
C           56.39525244196782       -3.43923543040055        0.01274703587105
C           55.45319192358979       -2.46658378143575        0.00544881114299
N           57.50417161516743       -1.41661491208793       -0.06448544634097
C           56.15054298380211       -1.22109583225859       -0.04694844175741
C           55.49855996776989        0.01320106943868       -0.09866351513773
C           56.18297542190897        1.23045228158652       -0.11293200163843
C           55.52012871341287        2.49480918763337       -0.16068295438925
C           56.48550554662639        3.44208651488609       -0.09341171248392
C           57.73629096656950        2.75149119367198       -0.00097628264204
N           57.53976579193570        1.38988249225046       -0.03986067542114
C           58.96255434035692        3.39373782366744        0.10762333125534
C           58.98108459560931        4.87266156192683        0.19448873779089
C           59.59765753690980        5.62899829185660       -0.80590399819981
C           59.61159136226613        7.01048372576517       -0.73149310932419
C           59.01340211195649        7.66270710538607        0.34922425099036
C           59.01681220363967        9.13371488640651        0.45317638418750
O           58.51919766824453        9.74079993185179        1.36631063072609
C           58.39866082031036        6.90559444750036        1.35192220634186
C           58.37974026887928        5.52624538881747        1.27401550532556
C           60.17157063490013        2.71028704090449        0.11908416010077
C           61.44877849825954        3.35026820856393        0.24357474252624
C           62.38511111490498        2.37887960884940        0.14007540987752
C           61.67929604737562        1.14529376209919       -0.02716230748751
N           60.32265754261399        1.35298461415214       -0.01528126558247
H           63.38966122529229       -0.08418808211160       -0.22748814548242
H           63.38197534862364       -2.65407797861204       -0.47781413631045
H           61.47463405816587       -4.55988967855748       -0.40712993538891
H           58.14514314370192       -5.08371086959921        1.88868555711401
H           58.10584717684169       -7.56700667716255        1.89115733220864
H           59.10957934607981       -9.69220181326198       -1.04126899285470
H           59.52494573701414       -7.59039430846595       -2.15242182662241
H           59.55557530954820       -5.12110526182535       -2.15875032555310
H           56.25186909612820       -4.50710018721855        0.03234832866275
H           54.38019769930954       -2.56731381784639        0.02814496668545
H           54.45259924905769        2.62403809546528       -0.23599805663301
H           56.37191929604620        4.51350794527511       -0.11397736719220
H           60.05199543890389        5.12536513054201       -1.65173682286994
H           60.08718656024604        7.59047442514497       -1.51571738197281
H           59.52359587057396        9.64897046180691       -0.39053408522853
H           57.93935700190880        7.42090436620175        2.18866205012225
H           57.91111360700229        4.94125574944105        2.05728029195290
H           61.59615142562878        4.40711555893568        0.39546790965914
H           63.45902367607606        2.46776634066889        0.17927511193813
C           38.08779475153260       -0.05258482689948       -0.00462707558478
C           36.86644026625370       -0.04565719452127        0.00308769655065
C           39.43797496920410       -0.05310155494029       -0.00960551031382
C           40.65943030271474       -0.04774085504285       -0.01306354743982
C           51.52016774605026        0.03707005931652       -0.11756749656813
C           50.29902597595780        0.03110618795249       -0.10212427868189
C           52.87103021516683        0.03851785993643       -0.12152368232888
C           54.09214501888206        0.02931740515742       -0.11603523383239
Ni          45.47940512633594       -0.01934208301805       -0.01974233774808
C           42.06435020017136       -0.04028100671335       -0.01271202103509
C           42.72968997804507        1.17365293109843        0.18035604799255
C           42.05251050024851        2.41936049543744        0.35008496616268
C           43.00153377757275        3.34013592794819        0.64624036850461
C           44.25520263563522        2.65018860683943        0.66115837799060
N           44.08046700335065        1.32559465955710        0.33226964809453
C           45.46102053900138        3.24236985466019        1.01377326754124
C           45.44847837107388        4.64914759911412        1.47704345310286
C           46.13666255164647        5.63670773301236        0.76625020466251
C           46.11890365410834        6.94806811216525        1.20102408800279
C           45.41974230339990        7.29995101571513        2.36020886440205
C           45.41997414591091        8.70610775283249        2.80539898313303
O           45.98871087334319        9.59194084630050        2.22091520168530
C           44.73448414768988        6.31311265078270        3.07271553468259
C           44.74557262353431        5.00155704201524        2.63231850515401
C           46.67612547751915        2.57358891257734        0.94759123778395
C           47.92686923125588        3.14828560524087        1.33973353362159
C           48.88713591636829        2.24625308925277        1.02357645216351
N           46.86466764403066        1.30727113720885        0.44256580629060
C           48.21935712850444        1.11970059054147        0.45391638778665
C           48.89350755408734        0.01770114048350       -0.07890842056398
C           48.22490846817765       -1.10320888880099       -0.57830707236723
C           48.89757468524535       -2.22541875017227       -1.15063616395150
C           47.94839120091876       -3.15735406803246       -1.40856124662589
C           46.69941037326592       -2.60226294730247       -0.98442124196803
N           46.87630206659023       -1.32182958245885       -0.51230908172105
C           45.49651699373412       -3.29591131528397       -1.00447744503294
C           45.50117129543693       -4.71261804436135       -1.43650819812153
C           46.22185796301544       -5.66980077427774       -0.71756407870987
C           46.22206466817389       -6.99373901944038       -1.11996365236794
C           45.50784063432103       -7.38424287912517       -2.25512649928271
C           45.49506112714867       -8.78760316031462       -2.70848245313649
O           44.90168130028645       -9.16901628207800       -3.68444777886018
C           44.79026540503074       -6.42506519905782       -2.97734871467625
C           44.78349817466452       -5.10492816291809       -2.57040658601453
C           44.28643069874239       -2.71536198153553       -0.64810675406827
C           43.04175621297044       -3.42088088599575       -0.61359035812655
C           42.08140196876598       -2.50497563875553       -0.34007054275204
C           42.74348709884377       -1.24795140979467       -0.19651355624425
N           44.09575697403762       -1.38626992838586       -0.34641478936818
H           40.98725697413257        2.55535534397549        0.25585336455199
H           42.87477305769838        4.39389701612043        0.83332297088895
H           46.67069755129943        5.36831674133305       -0.13820957899706
H           46.64409426627234        7.72223434534821        0.65194951492667
H           44.84527049844068        8.88907497427546        3.73822845960892
H           44.19244999542978        6.57710616966355        3.97496288411075
H           44.22085667365629        4.23520466225512        3.19167565414735
H           48.04474964474824        4.11618348277718        1.79870448337895
H           49.95393304882882        2.32192746417122        1.15867062597748
H           49.96011564051643       -2.27931685800703       -1.32430209453361
H           48.07228800020161       -4.13271855342935       -1.84990568974536
H           46.76887638746550       -5.37073382666012        0.16943953246382
H           46.77812694282574       -7.73245222774652       -0.55192737131601
H           46.08631219074447       -9.47856338388163       -2.07061305383289
H           44.24197950232262       -6.73690880900340       -3.85981551159596
H           44.23462640035093       -4.36131590020806       -3.13709871443543
H           42.92789781558713       -4.48019854475028       -0.77563199423791
H           41.01798679238354       -2.65176168808780       -0.24192100936242
