124
 energy: -223.858645539405 gnorm: 0.000855134727 xtb: 6.5.1 (b24c23e)
Co          15.86682677567609        0.06631989138689       -0.07171928118034
C           12.49536011494843        0.11611621249621       -0.29502476967648
C           13.17106095157145        1.31530577726152       -0.34903498509317
C           12.51741896092707        2.58417947306972       -0.45481646156960
C           13.46671959214097        3.52673337216178       -0.25227496252253
C           14.70407750576061        2.83237606865646       -0.04476791943495
N           14.51938894656963        1.47720496813042       -0.14679838749797
C           15.88667177254618        3.45019143675904        0.33931174587990
C           15.88680503538438        4.91364002186743        0.57119791279914
C           16.11314755605525        5.42119936824937        1.85352706301399
C           16.09934999403029        6.78495964319092        2.07500282443675
C           15.86495416214164        7.67086766000725        1.01832354538441
C           15.85049341628882        9.12189899814022        1.28143948309157
O           16.02683120287658        9.60586264539367        2.36980114268444
C           15.64658952502833        7.16394321942735       -0.26477055038573
C           15.65539674252229        5.79788883493615       -0.48529922547663
C           17.06913260178059        2.74528146519660        0.50299571894436
C           18.32309282362687        3.35948345767699        0.82206746653063
C           19.27382386705403        2.40670913455854        0.67308826922580
N           17.24918666244169        1.41433913479741        0.20001784391591
C           18.59895784535612        1.21390483764947        0.27007102120146
C           19.26646212418768        0.04160679274932       -0.09240330012824
C           18.57989151863986       -1.13188044678227       -0.41031745948587
C           19.23497952830914       -2.35012152315100       -0.76820206234331
C           18.27484646579081       -3.30338533477947       -0.82908479696875
C           17.03622626838821       -2.66236526653937       -0.50481472712807
N           17.22892404263918       -1.31444929334566       -0.30666961296876
C           15.83260024205059       -3.33447798067554       -0.35255573156152
C           15.81766381369711       -4.81025174741752       -0.45886520630580
C           15.05461195904460       -5.43682947674176       -1.44828907789973
C           15.04101532997572       -6.81603937879849       -1.55434928750747
C           15.78622031321320       -7.59698478684735       -0.66775448380756
C           15.78522313536150       -9.06885666730423       -0.75767239812777
O           16.40555341595979       -9.78495998018909       -0.01446926721227
C           16.54845503369728       -6.97031743677354        0.32366541845523
C           16.56733671139200       -5.59254672147902        0.42467917597635
C           14.63779664205671       -2.66260454324643       -0.13122191335963
C           13.37105624928754       -3.31239569872205        0.03937350811334
C           12.42895849192950       -2.34052553362458        0.02777525986144
C           13.12332659855863       -1.09868373641869       -0.12425567390900
N           14.47953091489937       -1.30093394033867       -0.16918997856425
H           11.41392899993585        0.13182280357835       -0.36109509358002
H           11.46186439913734        2.71436088357626       -0.63247082445087
H           13.34919640024301        4.59776686074637       -0.22618230800251
H           16.28325909062892        4.73544159954900        2.67573474335004
H           16.26642283588706        7.18804475750842        3.06807220844146
H           15.66335712419472        9.74642018443003        0.38198335460399
H           15.46910163797564        7.84490614079614       -1.09082240851979
H           15.49664100480043        5.40714460624943       -1.48402592104001
H           18.45040117774264        4.39337647940086        1.09823124710760
H           20.33994229067129        2.48994551139899        0.80943391572092
H           20.29512503258859       -2.44814706892892       -0.93716779640346
H           18.38345415954085       -4.34765853009385       -1.07238022468406
H           14.48544863628537       -4.83243608635276       -2.14558947503068
H           14.45079061404073       -7.29399412156488       -2.32944681510761
H           15.15454162083650       -9.47470693047305       -1.57725706932231
H           17.12152512708942       -7.58529819246938        1.00921569869392
H           17.15057104673744       -5.10967766929358        1.20054980187499
H           13.23433331150766       -4.37593279563205        0.14888726929923
H           11.35838861696824       -2.43493809692228        0.11545711233459
Co          29.26548135547416       -0.05338753958729       -0.11147439322139
C           32.63711503041532       -0.07194029323205       -0.30965551784491
C           31.96149438720969       -1.25116178068238       -0.53506359529847
C           32.61444081107023       -2.49120956605281       -0.82547142084946
C           31.66562315473037       -3.45355202354444       -0.75835981705297
C           30.42916884615479       -2.79708524996208       -0.44807748238786
N           30.61458186745162       -1.44185681449057       -0.35030532654817
C           29.24761209050812       -3.46344607751630       -0.15154187782643
C           29.24747556117007       -4.94500743504940       -0.13037794249016
C           29.02405709086349       -5.63048255793761        1.06685515450629
C           29.03812565187739       -7.01191690376451        1.09133508899181
C           29.26965504988654       -7.73790584498091       -0.08156804904596
C           29.28319085144360       -9.21159845962091       -0.02884654009534
O           29.11022018827559       -9.84636273455168        0.97963672081643
C           29.48523392699735       -7.05294346838213       -1.27964605281176
C           29.47618105837799       -5.66943147528627       -1.30282771204596
C           28.06595613036075       -2.78835115029160        0.11166757770840
C           26.81144691645856       -3.44148131038978        0.33829118165711
C           25.86050618366924       -2.47762591487195        0.32132673100890
N           27.88642295829776       -1.42745823979005        0.00320939076359
C           26.53576505730528       -1.23954138390877        0.09287497702075
C           25.86853885774981       -0.02787794987397       -0.10053009572972
C           26.55493466473932        1.17900220389380       -0.24873138292046
C           25.90036176120116        2.43536942769603       -0.43338911805061
C           26.85974343151960        3.38814060145048       -0.35305914947561
C           28.09768547012497        2.70816707353043       -0.11818620904053
N           27.90484945351306        1.34614642548181       -0.11080225808614
C           29.30093309071198        3.35177026419896        0.13058308651506
C           29.31556574857918        4.82764073421604        0.23514365913141
C           30.08012752259626        5.58832908257475       -0.65407315071309
C           30.09358370020696        6.96859761408566       -0.56343720216233
C           29.34641095962445        7.61593426808524        0.42348518477448
C           29.34830477575596        9.08555291482062        0.54373854307484
O           28.72464857213752        9.68954860410642        1.37818159331135
C           28.58201903196222        6.85497345884997        1.31416264469597
C           28.56357275235224        5.47677212816661        1.21889776672969
C           30.49539109457797        2.65483598971359        0.25287759020239
C           31.76281693442769        3.27339227131342        0.51223100279650
C           32.70437644722752        2.31300540103507        0.36056890441667
C           32.00929379101409        1.10550973999748        0.03421414277002
N           30.65272401871917        1.31146415985573        0.02532633328399
H           33.71844026194537       -0.07752276969294       -0.37885580235619
H           33.66915018541892       -2.59395716188367       -1.02483969388353
H           31.78316360405109       -4.51694818695165       -0.88868045765928
H           28.85594829947849       -5.06919869456319        1.97895893110913
H           28.87336158291263       -7.55269496049591        2.01707974543707
H           29.47021816978933       -9.70096981293715       -1.00846208868543
H           29.66045629958640       -7.60898198065296       -2.19490683153009
H           29.63245849678399       -5.14009537134322       -2.23595884783643
H           26.68419782814087       -4.50414783824903        0.46474509991672
H           24.79395494320166       -2.57958709917123        0.44053797633388
H           24.84102428617915        2.55610889101030       -0.59251324624013
H           26.75118476165417        4.45629111103275       -0.44689590501534
H           30.65065944330722        5.08896556869244       -1.42905830374994
H           30.68512887084677        7.55165166826848       -1.26179861681960
H           29.97964893929334        9.60329988400849       -0.20964164364434
H           28.00727086034081        7.36654031317899        2.07873174736607
H           27.97880671821689        4.88880240169640        1.91722069164416
H           31.90024764043397        4.31053093448801        0.77154552628942
H           33.77522482227624        2.39394344264790        0.45783436664840
C           21.89267904984254        0.01671003645789       -0.12168345286508
C           20.67066239213988        0.03255922185698       -0.10927048337297
C           23.24222342289394        0.00250669178885       -0.12437084250829
C           24.46423689388252       -0.01658873443719       -0.11711514377478
