438
 energy: -714.778656503593 gnorm: 0.000483610988 xtb: 6.5.1 (b24c23e)
C           76.07513521006246        0.69641630280053        0.02528934568917
C           76.67885342358238        0.74319918631577       -1.22504641817128
C           76.02127358938571        0.87694215816239       -2.47946610894033
C           76.97056262181727        0.81672706761174       -3.46124398010684
C           78.24077662365387        0.66220803526149       -2.83728208288446
N           78.01367720865089        0.62116686691876       -1.49052317857732
C           79.49232303632745        0.54521246080558       -3.45532704161360
C           79.51674094255860        0.60955718940869       -4.93501583311321
C           80.02055844554162       -0.45799097229744       -5.68089878324122
C           80.03110795631362       -0.42364346476406       -7.06459424173941
C           79.53537189480546        0.69382419993548       -7.74270968355308
N           79.56817473480761        0.80291089238978       -9.12483598242807
C           79.59154631526161       -0.40268211197986       -9.94243035486729
C           79.04661418662657        1.77507361029630       -6.99903607395672
C           79.03210900384867        1.72868937418321       -5.61770184882310
C           80.70201447925469        0.37296637048639       -2.77718733295826
C           81.99930657139916        0.37147992015049       -3.42844299208053
C           82.91845035971440        0.22787847361265       -2.45097183996853
N           80.85590368557632        0.23453126990145       -1.43091241133328
C           82.18156669311466        0.13829176462023       -1.20576839259374
C           82.81706550420247       -0.02279973081417        0.04313451494157
C           82.17988487919305       -0.13118322606311        1.29478086814954
C           82.82247097956753       -0.30610858280150        2.54842189637169
C           81.85547313001024       -0.35754089235514        3.51451989995278
C           80.59136050225821       -0.21624232922109        2.87884109155881
N           80.84000714908321       -0.08181238517132        1.53778314126092
C           79.33481524129662       -0.16550898504409        3.49362023425454
C           79.29877999336021       -0.38385787422589        4.95763857176613
C           78.78309435900862        0.58742900116774        5.81787440221754
C           78.74829102991630        0.38583989243423        7.18712104628771
C           79.23088683379325       -0.80678117365984        7.73415240022479
N           79.16604095500345       -1.08667135729567        9.09055198389329
C           79.11264266280968        0.00576487992969       10.05259682788369
C           79.73999823007638       -1.78835864407386        6.87471543216192
C           79.77917813791355       -1.57497918432283        5.51009123180739
C           78.13056628097914        0.07807468004876        2.82259843774817
C           76.82465807309441        0.09442489935852        3.46252302973709
C           75.92576742611217        0.35556893931857        2.49175180813205
C           76.67882677194673        0.47785302060426        1.25655758791678
N           78.00261516020021        0.30495189500108        1.49375640160397
H           74.99581041547376        0.81235401727036        0.02667076497232
H           74.95580652253622        0.98961359192233       -2.60248851507830
H           76.80756351534284        0.86275185616736       -4.52579112488009
H           78.73925080153488        0.49518099920020       -0.79265438316740
H           80.39036561153003       -1.33845288340886       -5.16666359668204
H           80.42597182161039       -1.27093891866158       -7.61159564545239
H           78.91918245303206        1.49568447041095       -9.47823139989408
H           78.78377743575719       -1.09105498092379       -9.66849487210538
H           79.47359884111286       -0.10524489119694      -10.98439148501159
H           80.54985352536841       -0.91155545446426       -9.83125792220080
H           78.67755114993469        2.65459524111546       -7.51614006171843
H           78.66110234797154        2.57925565297672       -5.05618333162792
H           82.16455793675257        0.49156569801192       -4.48688588702172
H           83.99247143160864        0.18713617337169       -2.53800382412949
H           83.88951390691734       -0.37799764940067        2.68478862602833
H           82.00339580329832       -0.46534787329849        4.57669997254282
H           80.12080138824234        0.05308955446294        0.83474417836877
H           78.42384759859353        1.52535137865873        5.40847640347286
H           78.34364362880683        1.16163689194727        7.82546953095716
H           79.80868928099116       -1.81748731914584        9.37129205084990
H           78.15520362224770        0.52298142655162        9.97838201744634
H           79.92439659671199        0.72447534908038        9.89185956922516
H           79.20178751529814       -0.42100622251873       11.05160332135844
H           80.10350191281722       -2.72313886596037        7.28846465111689
H           80.16579548449046       -2.34934287541669        4.85638523272445
H           76.64152859703364       -0.08774337532518        4.50924124921212
H           74.85348793340887        0.44545291943265        2.57043679367460
C          175.67035633794268        0.71395363349982       -0.06506888518719
C          175.06627686591025        0.82003401583393        1.18146017490618
C          175.72254252369390        1.02746332809931        2.42650709558167
C          174.77423247759688        1.00830689538298        3.41089966063525
C          173.50579163416694        0.80620649747121        2.79706259476754
N          173.73300233907250        0.69693104386605        1.45413009917455
C          172.25595491132395        0.70610597317301        3.42152769323328
C          172.23088936413572        0.84701784414274        4.89581367349814
C          171.73935115887204       -0.18627226572158        5.69618695183619
C          171.72846763388134       -0.08065631861958        7.07623890229114
C          172.21164351004683        1.07583557235882        7.69542439451279
N          172.17808941311344        1.25539857319324        9.07015601046577
C          172.16822018726057        0.09302634850857        9.94838073296312
C          172.68786953868673        2.12279636406187        6.89661086544850
C          172.70267202197056        2.00539658079794        5.51948213750732
C          171.04860543389296        0.48239826881664        2.75434056438995
C          169.75148430490844        0.49723775525217        3.40578314400434
C          168.83443920708888        0.28914361228137        2.43801617812936
N          170.89663394069092        0.27119216117176        1.41733405573767
C          169.57245754423309        0.14465384612581        1.19865403880680
C          168.93896763155766       -0.08966938991149       -0.03958987318105
C          169.57668157360484       -0.25209293071577       -1.28508523724680
C          168.93531656983134       -0.49636884496472       -2.52768614780597
C          169.90206949748830       -0.58275342108146       -3.49152396388957
C          171.16486871704467       -0.39508501924065       -2.86529607580156
N          170.91561887403745       -0.19781211921400       -1.53214836654063
C          172.42054988149783       -0.36091760488712       -3.48311162256590
C          172.45868339535801       -0.65197973908946       -4.93420901119619
C          172.96860904774888        0.27827621830500       -5.84199094903055
C          173.00563519366852        0.00856230128647       -7.19938985020223
C          172.53069854008703       -1.21288417806500       -7.68620806907836
N          172.59805921103288       -1.56001100172810       -9.02681034771498
C          172.64802450880455       -0.51705275809127      -10.04241678145201
C          172.02710473138711       -2.15331925220541       -6.77883337792932
C          171.98611666534276       -1.87228425262193       -5.42660652450400
C          173.62216168922586       -0.07082539028753       -2.82583527072384
C          174.92805624397730       -0.07436942757855       -3.46596629642703
C          175.82391204870734        0.24594848945894       -2.51021016745251
C          175.06923976794522        0.42455896823464       -1.28291958441097
N          173.74740400705872        0.22569565953895       -1.51051912729256
H          176.74835791119088        0.84141028916565       -0.07315185600443
H          176.78666667663759        1.15872834124002        2.54252718064708
H          174.93694970319592        1.11238637453692        4.47138873906233
H          173.00874839741638        0.52568052181521        0.76456916138985
H          171.37966585909089       -1.09629655199424        5.22833509995950
H          171.34321320264905       -0.90297596233660        7.66648666379377
H          172.81955603349792        1.97243773288365        9.38698282820284
H          172.98273295169969       -0.60012227195500        9.70854251578134
H          172.28437019047720        0.44451479257038       10.97358164333707
H          171.21509614460476       -0.43068843169903        9.86501968477217
H          173.04693082339207        3.03197663790255        7.36738895408431
H          173.06371069072171        2.83011205545104        4.91457696836276
H          169.58450695345343        0.67091918653507        4.45648167754986
H          167.76111216186573        0.23788845189178        2.52794613339311
H          167.86914973802436       -0.58808690147234       -2.65887922665482
H          169.75440992244486       -0.74376829638340       -4.54697545061189
H          171.63364161117491       -0.01932491622895       -0.83766688075826
H          173.32139062393171        1.23793220710911       -5.48010334352800
H          173.40588066496434        0.75394028785850       -7.87562977288469
H          171.95911316702961       -2.30694924486458       -9.27115360146906
H          173.60322700160467        0.00724302391801       -9.99328387048278
H          171.83311532307653        0.20539976172173       -9.91880160723189
H          172.56188582804140       -0.99381367408909      -11.01882617384515
H          171.66946758800640       -3.10980460861560       -7.14538260411899
H          171.60436134824414       -2.61560047149829       -4.73509833685096
H          175.11358833267167       -0.30908558283456       -4.50173703383045
H          176.89525001378556        0.34250811601142       -2.59367719593018
C           84.22076875964648       -0.07514506851087        0.05536077744467
C           85.44569676632916       -0.09981852607174        0.06901129591861
C           86.78752681670807       -0.11719772195709        0.07843201247991
C           88.01885943426399       -0.11992980636728        0.08623837210792
C           89.35606101240410       -0.11517956240829        0.09061270688444
C           90.58743654199709       -0.10309797696532        0.09115471017335
C           91.92907584014965       -0.08452209628868        0.08914980733224
C           93.15433212782422       -0.06349295341001        0.08269846437256
C          102.81871933914738       -0.04305752083230        0.02782396447339
C          104.04423897891724       -0.03424084535616        0.01888036709784
C          105.38567813175318       -0.02143940483013        0.01252521991717
C          106.61721757824154       -0.00868884130074        0.00766229717277
C          107.95404380423015        0.00332169595663        0.00301416489160
C          109.18559858164588        0.01405188820023        0.00079632429154
C          110.52707293625268        0.02522455932099       -0.00058291908603
C          111.75261323330641        0.03494358320758       -0.00457852926790
C          121.41552196215378       -0.04042561511824        0.00117574534102
C          122.64110388833342       -0.03811914805790        0.00011962506591
C          123.98259955868848       -0.03139570665404       -0.00043885821922
C          125.21414876599398       -0.01920869594130        0.00083974461612
C          126.55097088932246       -0.00759385911267        0.00078430358915
C          127.78251264714879        0.00526748007057       -0.00095783461737
C          129.12395817019026        0.01844867127232        0.00022149285438
C          130.34949374225934        0.03033224600342       -0.00136106519743
C          140.01249464588915       -0.01612805473207        0.00588689531476
C          141.23804875515771       -0.01321571027829        0.00153920657103
C          142.57952880850129       -0.00827005572402       -0.00103404060078
C          143.81110264590305       -0.00231102094406       -0.00345037103317
C          145.14793832481715        0.00224227550396       -0.00770554506127
C          146.37951027903392        0.00610792161776       -0.01422579120092
C          147.72097255584134        0.00824306523420       -0.02088824997548
C          148.94651518125463        0.00803009227643       -0.03028973905033
C          158.60382481581459       -0.22748108676101       -0.07384713888672
C          159.82902201734655       -0.25063564979370       -0.07820634375059
C          161.17064328676003       -0.26374535792609       -0.08113468127841
C          162.40204298801535       -0.26779178940750       -0.07660370588137
C          163.73915150568124       -0.25887505492111       -0.07306708295588
C          164.97033922056895       -0.24075824532913       -0.06629676868484
C          166.31176464618849       -0.20536582594322       -0.05826905847445
C          167.53620411242613       -0.16251989229431       -0.04722523289954
C           94.55781360206988       -0.03596700864470        0.07470914830981
C           95.19011333363373        0.02646982544579        1.33245470999667
C           94.54542720013860        0.03457763043375        2.59551767383588
C           95.51399482891945        0.07851346941830        3.56163530779746
C           96.77856862822662        0.10757785798757        2.91446871883777
N           96.53176225182800        0.07012818353180        1.56772099652802
C           98.04058454373975        0.13210796439800        3.52353398848175
C           98.05808386817780        0.20530486742305        5.00339690576136
C           98.66962156470156       -0.79741928486904        5.76145344197437
C           98.67840005889407       -0.73391024460009        7.14171399414136
C           98.08046939307897        0.34270831799404        7.80872984383580
N           98.16488918616130        0.39285119799518        9.19155424460756
C           97.19246336796108        1.17163641522406        9.94650097428020
C           97.48121490979885        1.35608732413647        7.05486123046524
C           97.46536922262257        1.27760948586491        5.67276532703911
C           99.26278317220229        0.09248331022480        2.84929677505824
C          100.55249890758944        0.18771535158367        3.50886065505933
C          101.48579022233774        0.12700477922470        2.53622254887340
N           99.43418898284079       -0.00676365246904        1.50153528622649
C          100.76476841472717        0.00702435008210        1.28508170652087
C          101.41524739369453       -0.05692208422478        0.03546644564482
C          100.78311675243052       -0.11263597668993       -1.22270890711219
C          101.42854356552304       -0.11624147500576       -2.48561506373919
C          100.46035573172796       -0.14013541470611       -3.45255596796864
C           99.19500017087385       -0.16361361168889       -2.80637563908959
N           99.44141172744074       -0.14213250100789       -1.45894849979246
C           97.93321935476321       -0.17203637399614       -3.41543522850811
C           97.91317876278870       -0.21692203204035       -4.89638707650357
C           97.30849505335294        0.80479177542517       -5.63119354919838
C           97.28830285355281        0.77612470284093       -7.01491965369171
C           97.86275367385984       -0.29646289421675       -7.70349188415806
N           97.90926945323510       -0.35450833184022       -9.08787292608854
C           96.91681583238383        0.36694254203474       -9.87342591407865
C           98.47443008619950       -1.32151604918838       -6.97107883881082
C           98.50184166213401       -1.27807380283369       -5.59006524519307
C           96.71080956082908       -0.14085886783827       -2.74032397446727
C           95.42160568845938       -0.23042264730225       -3.40153718679314
C           94.48791953803142       -0.19040010628302       -2.42808755241259
C           95.20817432538098       -0.08468220207608       -1.17537931554846
N           96.53901020899374       -0.06195459182584       -1.39166030793127
H           93.47741865651081        0.00176228808368        2.73879171679438
H           95.36601637893750        0.07579877246446        4.62917452905294
H           97.25046125057088        0.06302033372331        0.85163693840417
H           99.12096703575325       -1.64610453796515        5.25936122406608
H           99.14935763465695       -1.52318614463530        7.71816449763927
H           98.34039799882441       -0.51397333539410        9.60712820257750
H           96.16459877465959        0.90723427554141        9.67288181807008
H           97.34728334956367        0.96771235527051       11.00597152368793
H           97.34811669049532        2.23670038092714        9.76987694652932
H           97.02886601169314        2.21165855346834        7.54112129754039
H           97.00663129845992        2.07603641368056        5.09942558153534
H          100.70292004454268        0.30501779725018        4.56973679335107
H          102.55922512331007        0.16937314700308        2.62937070549722
H          102.49688603696089       -0.09227623171964       -2.62799866952083
H          100.60921194622908       -0.12750177978230       -4.51984967293450
H           98.72233692232007       -0.13316492280125       -0.74328431313808
H           96.86715967444863        1.64660350121700       -5.10878399076654
H           96.82644887742819        1.59401794417725       -7.55413607432458
H           98.06905933392794       -1.29235356746743       -9.43552954037948
H           97.08033255709758        1.44185564692641       -9.78636813909511
H           97.03972008843070        0.07903337896453      -10.91746740272924
H           95.89697126896131        0.12991687543408       -9.54958309736386
H           98.92646127783649       -2.15611424500970       -7.49663039118857
H           98.96181631313114       -2.08938481724862       -5.03636796874670
H           95.27193211299256       -0.33095660819954       -4.46429329901736
H           93.41469769339072       -0.23606727303630       -2.52213485672602
C          113.15612452246552        0.04688914236306       -0.00435940545330
C          113.78095100039309        0.10466668561104        1.25749330907850
C          113.12785444153772        0.12044917352436        2.51619642745774
C          114.09028516029025        0.15110112103394        3.48887610700835
C          115.35951659363944        0.16473223424152        2.85035469341238
N          115.12133694394275        0.13150001746652        1.50182339376706
C          116.61764107802072        0.17336680089809        3.46773794675695
C          116.62660459558299        0.24248306363803        4.94777151731680
C          117.22414609408037       -0.76826419867116        5.70643572994797
C          117.22396637173185       -0.70980113951178        7.08691449194914
C          116.63081521632708        0.36959196333510        7.75377782129763
N          116.70546207942745        0.41370298859850        9.13724362749573
C          115.73426312568871        1.19779375024378        9.88828613660667
C          116.04619182871852        1.39118083067695        6.99943674398677
C          116.03924042361751        1.31786022449582        5.61700891507410
C          117.84367455915006        0.12166680303967        2.80103043889255
C          119.13005894805416        0.20486687231929        3.46859251242533
C          120.06875511464028        0.13717157800557        2.50160246935649
N          118.02242075064294        0.02160721730072        1.45436537181215
C          119.35445712186045        0.02394165393233        1.24602829763280
C          120.01196599533873       -0.04612191545240        0.00048245137534
C          119.38736779649425       -0.10060696263206       -1.26155618629884
C          120.04091099495048       -0.11407707546453       -2.52015681029661
C          119.07884521214523       -0.13450840146821       -3.49332534334675
C          117.80924862656856       -0.14536004233225       -2.85531860747217
N          118.04700982162761       -0.12058819410253       -1.50645245700155
C          116.55126894043281       -0.14523852585316       -3.47262324246931
C          116.54062964072375       -0.19714637804464       -4.95338785559020
C          115.94927885957435        0.82591418586573       -5.69715614719050
C          115.93875118942988        0.79113528868792       -7.08084189530109
C          116.50976413936223       -0.28896444350326       -7.76049756788352
N          116.56625829864447       -0.35337669429254       -9.14415372252273
C          115.58649365697252        0.37333684259274       -9.94064827975790
C          117.10784529200950       -1.31559005599924       -7.01907280940363
C          117.12569175066410       -1.26611398801627       -5.63811734391015
C          115.32514792943665       -0.09815804986284       -2.80545678332371
C          114.03906431189563       -0.17726759983226       -3.47404417552939
C          113.09996980904454       -0.12052720426118       -2.50663602661492
C          113.81377537028898       -0.01577575267268       -1.25013738829385
N          115.14591300977912       -0.00960953936227       -1.45820272192188
H          112.05859962013189        0.10094992913523        2.65230646798642
H          113.93488928607007        0.14907454834136        4.55534860263188
H          115.84486869047964        0.11511176138532        0.79077675830356
H          117.67126402242729       -1.61921754268130        5.20439576759543
H          117.68384112206854       -1.50534568134626        7.66369167206325
H          116.87068747807503       -0.49601641093915        9.55067909005430
H          114.70623775698544        0.94323582515499        9.60614642238825
H          115.87963474837366        0.98831228490637       10.94800625306177
H          115.90024154168886        2.26218080406381        9.71710724258686
H          115.59826662900512        2.24906004259130        7.48571514315443
H          115.59199495420904        2.12265252161260        5.04349762729472
H          119.27494221509640        0.32013736545771        4.53045997691676
H          121.14191878419496        0.17020435146237        2.60136691335889
H          121.11030481726944       -0.09902015609292       -2.65569137394664
H          119.23477226847176       -0.12731556813637       -4.55965623446752
H          117.32329121406545       -0.10297903193465       -0.79563924357559
H          115.51107001941234        1.67365842642317       -5.18175745165069
H          115.48726585274240        1.61020748838331       -7.62700472035451
H          116.72127306250523       -1.29382803248750       -9.48683965007405
H          115.75845412787515        1.44715958139056       -9.85644565696173
H          115.71550550101847        0.08025346496280      -10.98251182349547
H          114.56203130528941        0.14628786172117       -9.62432251230133
H          117.55702220269451       -2.15608874590122       -7.53762101551051
H          117.57524480853699       -2.07854302118464       -5.07754094072723
H          113.89473756349581       -0.28274106650149       -4.53706374182608
H          112.02686949879268       -0.15452001722748       -2.60694094510296
C          131.75293381787097        0.04644461516536       -0.00064903409438
C          132.37733186720692        0.10553673234220        1.26133071943873
C          131.72397752657778        0.11792979607633        2.51996519709155
C          132.68612833290814        0.15130911043001        3.49281276041177
C          133.95542751980449        0.17021337722562        2.85451546589890
N          133.71755115414103        0.13714200126140        1.50588304394069
C          135.21338933142187        0.18337170728529        3.47200150361701
C          135.22230982330038        0.25044018800778        4.95211142114243
C          135.82451567198706       -0.75900100505545        5.70885652975279
C          135.82477689857222       -0.70280120311262        7.08940908927238
C          135.22737720241494        0.37299129701696        7.75829787317616
N          135.30262623724488        0.41516010205998        9.14179338176984
C          134.32842728750160        1.19373914875333        9.89467763332414
C          134.63801488148073        1.39329053733095        7.00590413052889
C          134.63068532748935        1.32220793426766        5.62334778956870
C          136.43974446936750        0.13726371390002        2.80533939292467
C          137.72570472485296        0.22540404067850        3.47308258168961
C          138.66479261039996        0.16115378600133        2.50621884272157
N          136.61898626026246        0.03812683812164        1.45874547593457
C          137.95108947632190        0.04514712399869        1.25060948485286
C          138.60896026899195       -0.02349455532700        0.00527613777580
C          137.98471272597041       -0.07964931139241       -1.25688914835249
C          138.63847888767972       -0.09129229462058       -2.51536444728801
C          137.67661287919731       -0.11504712759312       -3.48867295758056
C          136.40700641814271       -0.12988639752447       -2.85082022900976
N          136.64444626985428       -0.10371461099522       -1.50197702333625
C          135.14912208328874       -0.13463156166672       -3.46841435379468
C          135.13942322977425       -0.18875157956747       -4.94911800757243
C          134.54550149292288        0.83111335606271       -5.69516951807656
C          134.53631963820973        0.79381851789716       -7.07882360702941
C          135.11137220253778       -0.28565361661643       -7.75605063042330
N          135.16940856554535       -0.35236047774508       -9.13956208236373
C          134.18784887867221        0.36953266093672       -9.93822606433900
C          135.71203020136690       -1.30908188603944       -7.01230585351327
C          135.72846012401143       -1.25709016334067       -5.63144172691786
C          133.92278397058664       -0.09124376424138       -2.80157810848432
C          132.63704955406530       -0.17451997478440       -3.47032140725429
C          131.69766154390632       -0.12064820226411       -2.50304468699947
C          132.41098007525659       -0.01364842352845       -1.24641616370274
N          133.74305000553673       -0.00309833054049       -1.45429494629614
H          130.65477505148539        0.09435117103857        2.65586326988422
H          132.53059007532542        0.14783451199043        4.55926238835181
H          134.44122879971681        0.12389885981408        0.79492241680113
H          136.27504474953918       -1.60718341906826        5.20517932398525
H          136.28834956323257       -1.49729926261472        7.66466517333039
H          135.47200517124543       -0.49453890857678        9.55359824860622
H          133.30136793496388        0.93509321762708        9.61272961000523
H          134.47536429834821        0.98317870142084       10.95396808989620
H          134.48960667931632        2.25912371684380        9.72512339614001
H          134.18671489302702        2.24847611565381        7.49380588708540
H          134.17979405414570        2.12605978054361        5.05137383017431
H          137.87001018710939        0.34139442518184        4.53495014366784
H          139.73782018691196        0.19830869328871        2.60604516056282
H          139.70782768937428       -0.07279526288738       -2.65078720598007
H          137.83266172718359       -0.10757399885645       -4.55498220173386
H          135.92058842924351       -0.08857653768100       -0.79124836595753
H          134.10420936047547        1.67841450368302       -5.18167657761568
H          134.08277021903316        1.61049984212250       -7.62685707717061
H          135.32775620805643       -1.29296634819245       -9.48031531964265
H          134.35610219998921        1.44408879881061       -9.85589173669206
H          134.31872763587586        0.07493076833227      -10.97942998026836
H          133.16389655740758        0.13959792144768       -9.62231867116936
H          136.16438453484241       -2.14904213219655       -7.52896167019808
H          136.18015576163694       -2.06703170300425       -5.06899093617405
H          132.49321860173941       -0.28044171489006       -4.53336587547122
H          130.62469167166543       -0.15805386307063       -2.60353065364405
C          150.35001477925633        0.00736050117059       -0.03757026107096
C          150.98202722448642        0.06151231882308        1.22081251557167
C          150.33563832268302        0.09184928147308        2.48279022566625
C          151.30332536392376        0.11664814841613        3.45037348556818
C          152.56934889746395        0.11074371054870        2.80535674737608
N          152.32380746709475        0.07321198226790        1.45818163667832
C          153.83059508102437        0.10481766040686        3.41605067670509
C          153.84931700248936        0.18527269618275        4.89529142969700
C          154.43874643163244       -0.82682755293953        5.65857952705026
C          154.44982035516074       -0.75620414940259        7.03840343171618
C          153.87640009530202        0.33700307290496        7.70006428634625
N          153.96343540153265        0.39277984187247        9.08227722852859
C          153.01113300199458        1.19832367481756        9.83466939087037
C          153.29887029351204        1.35916452563013        6.94102379386153
C          153.28056922338362        1.27379608303387        5.55938654117009
C          155.05184329370519        0.02750592174717        2.74268466390211
C          156.34345790617186        0.09140377740971        3.40216430598517
C          157.27494564599758       -0.00336917696600        2.43051451187947
N          155.22054796245732       -0.08609993153136        1.39594336916015
C          156.55127275948468       -0.11184245313367        1.17992851286292
C          157.20030012486663       -0.20213623390522       -0.06857324614871
C          156.56891567208925       -0.24383024529271       -1.32759782534721
C          157.21653216630691       -0.26747096335790       -2.58907621128073
C          156.25006933762577       -0.26304807564572       -3.55812905729880
C          154.98333587932547       -0.24924673155301       -2.91458586277668
N          155.22733572562913       -0.23434660738828       -1.56677495361056
C          153.72249055650181       -0.22219615030453       -3.52571530733798
C          153.70323046935880       -0.26523429177138       -5.00664087988890
C          153.12459089783394        0.77188929830278       -5.74090625076104
C          153.10730618655998        0.74669071077941       -7.12475294122346
C          153.65852433469851       -0.33741146990802       -7.81425957967765
N          153.70890189027628       -0.39300691718812       -9.19859612351155
C          152.73889422528106        0.35573307067696       -9.98652639985397
C          154.24309211459808       -1.37859537421165       -7.08243595931393
C          154.26767355622565       -1.33890561550209       -5.70125974585172
C          152.50107624564868       -0.15775615786315       -2.85158653083564
C          151.21024083308720       -0.21607646164843       -3.51312102101278
C          150.27756181500783       -0.15191032109475       -2.54000017665944
C          150.99988902369000       -0.06141211945184       -1.28718940498936
N          152.33066875704887       -0.07212642901998       -1.50290399590196
H          149.26693122746249        0.08624408843811        2.62440156715871
H          151.15350659529221        0.12264918450590        4.51763782673406
H          153.04355687606053        0.04380672337347        0.74371836124271
H          154.87061273338773       -1.68814731145012        5.16089419871255
H          154.90360442867163       -1.55261423782180        7.61879307510247
H          154.12002666839956       -0.51503664048822        9.50311068342667
H          151.97677752615877        0.95591236424403        9.56522914527629
H          153.16397203575121        0.99742135930722       10.89500529928734
H          153.19074523559152        2.25841985208926        9.65104481223876
H          152.86563793514523        2.22698880153856        7.42295513368580
H          152.83948414986003        2.07931876079219        4.98213081721382
H          156.49702594430545        0.21302462099596        4.46208479420026
H          158.34908816038066        0.00930219066499        2.52401617092186
H          158.28541734258755       -0.27491442502954       -2.72922003118039
H          156.40171528119942       -0.25483211156086       -4.62506633839218
H          154.50702865943606       -0.20322353995694       -0.85295189276158
H          152.70201047544944        1.62289304052903       -5.21787534537906
H          152.66618320099627        1.57639178739059       -7.66329868946797
H          153.84686055858970       -1.33347991925067       -9.54842087643172
H          152.92852671381846        1.42592181354345       -9.89440030232248
H          152.86032397240893        0.06884275490246      -11.03103280338040
H          151.71170777413994        0.14287152225287       -9.66914672798200
H          154.67656577566865       -2.22256781020600       -7.60866191389358
H          154.70637048748333       -2.16241234091673       -5.14830281905828
H          151.05850197573309       -0.31470839757864       -4.57577603134103
H          149.20355049168947       -0.17122024723291       -2.63431575814740
