298
 energy: -516.171325988193 gnorm: 0.000530469691 xtb: 6.5.1 (b24c23e)
Zn          46.70124336219904        0.08511805644741       -0.05406152334223
C           43.28944628194630        0.17744358232737       -0.11237224277110
C           43.91684780014783        1.01683655090377        0.80087872064679
C           43.24151295353875        1.89555121352202        1.71548536150463
C           44.19944024600274        2.53133313477868        2.43532156536834
C           45.47227164381473        2.05317433394834        1.96541049521232
N           45.26511671133127        1.13502401387894        0.97777607225280
C           46.71976838696033        2.44854602173956        2.45850261291109
C           47.95908259143067        1.97180487234948        2.02356412785255
C           49.23542682966880        2.40830053399234        2.51792140843367
C           50.18608703726206        1.72596101532009        1.83032097109377
N           48.15886310612561        1.03741214306154        1.04265602919160
C           49.50119953919312        0.86966529639696        0.90563201573460
C           50.13648917518228        0.00593219119602       -0.00848021065500
C           49.48674799894799       -0.83295125522730       -0.93536885438218
C           50.15565261476626       -1.72435293375508       -1.83834606097746
C           49.19293220789020       -2.36793391310099       -2.54633556849799
C           47.92548646304072       -1.87073294130893       -2.08775792676557
C           46.67738244881043       -2.28945909564943       -2.55570046096429
C           46.66620458979001       -3.32522247828899       -3.62904718867833
C           47.08672026160632       -3.00868313186652       -4.92728676546537
O           47.47867025318518       -1.72183611323930       -5.12741184924632
C           47.94722752621263       -1.30599415603787       -6.39375190041553
C           47.07750959270536       -3.97904225432701       -5.92890238729507
C           46.65031841559399       -5.26339940195393       -5.62740886638749
C           46.23018918207935       -5.60061818246585       -4.34962904647381
C           46.23661152128280       -4.62900660067676       -3.34926883852930
O           45.85181714575049       -4.86499960531335       -2.06617951090142
C           45.40574455386120       -6.14808174159772       -1.67803898232349
C           45.43717908006308       -1.82537879900892       -2.10630264605907
C           44.15723241441562       -2.23719192199034       -2.61777050658003
C           43.21114611536831       -1.54395824497874       -1.93623392077471
C           43.90136536344679       -0.69775687937750       -1.00227556034898
N           45.24642021139255       -0.89031028068034       -1.13135053906015
N           48.14215975309740       -0.94086587544385       -1.10609543549004
C           46.72854187995696        3.47231079700071        3.54307558325188
C           47.10502122127880        3.12245013731113        4.84644051158234
O           47.43707436652344        1.81774634875959        5.03877388096304
C           47.87160756120836        1.37014238859549        6.30627370272004
C           47.11357930390519        4.07993200627124        5.86028124017747
C           46.75095969579563        5.38552629558419        5.56555365676231
C           46.37644527294958        5.75610336162194        4.28292666339032
C           46.36241923051954        4.79681945531094        3.27076317389194
O           46.01636795098507        5.06442428952098        1.98308240794512
C           45.63256008733096        6.36966942037247        1.60190145554540
H           42.20418652355442        0.20743488160833       -0.13155577554353
H           42.17015039869619        2.00078537772352        1.79038180715578
H           44.06364979947894        3.26057875622295        3.21817108011910
H           49.38112206497402        3.14554121056567        3.29118846431734
H           51.25789993983528        1.79341713884863        1.93086007417935
H           51.22558795423161       -1.84044193254984       -1.91065363690128
H           49.32465520007320       -3.11545400182884       -3.31222365766487
H           47.17219144977955       -1.40813028115118       -7.16325157895590
H           48.21107089189515       -0.25183173779798       -6.28927593369025
H           48.83663207776628       -1.87106957014524       -6.69832793242264
H           47.39757381945370       -3.74363957467675       -6.93513379042076
H           46.64464532918931       -6.01852599261048       -6.40584390956558
H           45.90366419229526       -6.61096744627554       -4.14241979204570
H           45.15660063135596       -6.07553454998211       -0.61763696441494
H           44.51172842578595       -6.44964247204059       -2.23755938672993
H           46.18918499257871       -6.90395223647218       -1.81253530164965
H           44.00926573386435       -2.96358498576983       -3.40111210609737
H           42.13890386950385       -1.59028427721812       -2.04866525226653
H           48.10001914254335        0.30884492890945        6.19198163520654
H           47.08924192808151        1.48982895675819        7.06567872047051
H           48.77540840810519        1.89983366726192        6.63103846817944
H           47.39749144602825        3.81825199667314        6.87089656222244
H           46.75984411917621        6.13074431948808        6.35344703779212
H           46.10040435497262        6.78251284176655        4.08106796096871
H           46.44361571825699        7.09042954223529        1.76251959762849
H           45.40355935159021        6.32004011178891        0.53564297826677
H           44.73990336621188        6.70158654906778        2.14626454935866
Zn          87.15782842434534        0.02257047486561       -0.09501253053382
C           90.56912784611696        0.11375479605478       -0.17761380958214
C           89.94418795019965       -0.62197206624029       -1.17785304557815
C           90.62209942043023       -1.34996517696747       -2.21473306170418
C           89.66601750715598       -1.93211273759043       -2.98094490625544
C           88.39172935434692       -1.56021415629569       -2.42656658806806
N           88.59627760504368       -0.77116492148291       -1.33243326091749
C           87.14470027079774       -1.95560384451059       -2.92084728071390
C           85.90381560037309       -1.60983917052501       -2.37940053515048
C           84.62845649893039       -1.98728334736229       -2.92227004160941
C           83.67592843827384       -1.44988732405127       -2.11835297742404
N           85.70173432591173       -0.84483681747971       -1.26173959416719
C           84.35893343220413       -0.73721575681532       -1.07783922063721
C           83.72217188616851       -0.05051600385773       -0.02468609978059
C           84.37157037198021        0.65702088896188        1.00666182591864
C           83.70220725509394        1.33323770485788        2.07984004430506
C           84.66347926680987        1.90234086534066        2.85091666681379
C           85.93027866976476        1.58392722285926        2.25299181759286
C           87.17651372567562        1.98186294371659        2.74364172918506
C           87.18334284440361        2.83240346869800        3.96889126009428
C           86.73036747609940        4.15712254384304        3.91408297155490
O           86.31306050244937        4.59198564106782        2.69502537843766
C           85.80973135380873        5.90263993747272        2.53691729877470
C           86.73488410314427        4.95307674894036        5.05914124140319
C           87.18923704295261        4.41989400289156        6.25589612270424
C           87.64143999255943        3.11138387295127        6.33500805622330
C           87.64031921579007        2.31707652706481        5.18872490296869
O           88.05627661402204        1.02215584438025        5.16817058302174
C           88.53286972005573        0.40589725826148        6.34668745650630
C           88.41720193012323        1.65612963452073        2.18678772588572
C           89.69509621968285        2.09253690944636        2.68265140993733
C           90.64248366570754        1.57052096778143        1.86403473290641
C           89.95499062352482        0.81298512661260        0.85499405535545
N           88.61019351873115        0.88759710731082        1.07613133617100
N           85.71505884919240        0.81936595086004        1.13741748740186
C           87.13733634481163       -2.82680064512293       -4.13133107636634
C           86.74334272849890       -4.16798146984917       -4.03375902824363
O           86.39325478090224       -4.59514384761565       -2.79114576635514
C           85.93837825064310       -5.91770011303329       -2.59117730679645
C           86.73702867316071       -4.98643902207922       -5.16275812020642
C           87.11885542670984       -4.45877025685750       -6.38699400003608
C           87.51031343595730       -3.13409613719901       -6.50889576614307
C           87.52270219834325       -2.31781281044197       -5.37818466997677
O           87.88510840991900       -1.00709369542176       -5.39850868227301
C           88.29780925478035       -0.39814684574893       -6.60478393838415
H           91.65424095979546        0.14341793986308       -0.20436680905501
H           91.69379064953853       -1.40458050775948       -2.32874848201514
H           89.80413891729398       -2.55903309167302       -3.84750107514355
H           84.48477085730477       -2.58520516029515       -3.80803611480916
H           82.60413515549040       -1.52369936432555       -2.21457153693018
H           82.63301549547933        1.36135944763481        2.21946308995371
H           84.53115005729288        2.48663425747531        3.74748816805214
H           86.56967222618782        6.65714144944994        2.77455296642092
H           85.52916523969165        5.99590008893980        1.48602143528829
H           84.92432583967931        6.07100980907256        3.16201644309809
H           86.39034844290543        5.97804381131245        5.02606523511524
H           87.19108942171346        5.03811500937587        7.14697336431446
H           87.98848623663567        2.72120779965638        7.28247191276850
H           88.80475614449962       -0.61402382615038        6.06802341011600
H           89.41897905972860        0.91959710653501        6.73938032374781
H           87.75958562887435        0.37238280575978        7.12394866018129
H           89.84110849797408        2.71970146811095        3.54778610788302
H           91.71390009646737        1.68357272706561        1.92561810371147
H           85.69621804834085       -5.99865992843643       -1.52983849981568
H           86.71393226533056       -6.65243273406351       -2.83997937793002
H           85.03858802455917       -6.12663106032564       -3.18252490235949
H           86.44051148895275       -6.02474167785670       -5.09603396921255
H           87.11168811510208       -5.09444485618097       -7.26566920085692
H           87.80040367631587       -2.74846101047837       -7.47717153348342
H           87.49775524661599       -0.40884951563395       -7.35507963590036
H           88.54108844055443        0.63648102900841       -6.35546161618025
H           89.18844095702886       -0.88739738765826       -7.01795874113600
C           52.76553071483138       -0.02737145022077        0.01300205759506
C           51.54374561252511       -0.01745146540732        0.00418626315993
C           54.11647443417746       -0.03371005918852        0.01890387017371
C           55.33840830864564       -0.03268920449025        0.02245749503636
C           66.25558141971651       -0.01564542033503       -0.00777513625338
C           65.03294554243671       -0.00854376625960       -0.00616577332465
C           67.60444589055599       -0.02428441394291       -0.00876855478911
C           68.82707608168955       -0.03364519175670       -0.00817858997576
C           79.74340637454758       -0.09428690077627        0.01441822934770
C           78.52119947376482       -0.09849386503488        0.01597079445745
C           81.09375737675711       -0.08474012783095        0.00732319695553
C           82.31573658282306       -0.07173072478766       -0.00325930990652
Zn          60.18672107265085       -0.01173319974688        0.00859662143702
C           56.74535263482048       -0.02790567662276        0.01955287213466
C           57.39284875108750        0.02182683940223        1.27009526847022
C           56.72024306849511        0.04320224159860        2.53614285877092
C           57.68093528539399        0.07452550057699        3.49495130088722
C           58.94971035585507        0.07913150690452        2.82287496244553
N           58.73745604769687        0.04346273447462        1.47069716487511
C           60.19703333447738        0.09382432458733        3.45295224433921
C           61.44025985428431        0.07430152961074        2.81536891821149
C           62.71286953637472        0.12118672166007        3.47831530881945
C           63.66787855250000        0.09423647184366        2.51356814788803
N           61.64470200485260        0.02786751514284        1.46209517617444
C           62.98763608736927        0.03588147532211        1.25303635054936
C           63.62837841388976       -0.00508644025767       -0.00227942830334
C           62.98000305694695       -0.04425145498522       -1.25368837862055
C           63.65254790676404       -0.09549756626085       -2.51866960527517
C           62.69160477351750       -0.12222650591179       -3.47754949936122
C           61.42308247311066       -0.08398553065368       -2.80635546325678
C           60.17600521060857       -0.11137946194596       -3.43583491974650
C           60.17222902093835       -0.14406278928909       -4.92715023847919
C           59.77326316538264       -1.29931154069571       -5.61168905076868
O           59.41297858601905       -2.35548031679366       -4.83444897621940
C           58.97328364776126       -3.56116840280113       -5.42534566925683
C           59.77203771824840       -1.32869030618495       -7.00597455449280
C           60.16657974737408       -0.20109048054090       -7.71013926632606
C           60.56406190173463        0.95439648140974       -7.05454243559619
C           60.56862083556825        0.98213165038400       -5.66027381655518
O           60.93229819048315        2.06898935493775       -4.92848388986520
C           61.37024480118487        3.24946636447582       -5.56960712457142
C           58.93279182433577       -0.10920895954766       -2.79773233210215
C           57.65990697810477       -0.11617626877456       -3.46193223965389
C           56.70500522821521       -0.09629964105123       -2.49708456991112
C           57.38529020026844       -0.07052502329392       -1.23521235993775
N           58.72874816924645       -0.07834208435975       -1.44423569388086
N           61.63577724586499       -0.04065544846762       -1.45425422640684
C           60.20321154160521        0.12881574725338        4.94418520713114
C           60.62016287855456       -0.99088587957408        5.67602981866376
O           60.99351106434926       -2.07375921090063        4.94322526652344
C           61.45878102648005       -3.24473871115728        5.58250444114278
C           60.62532627194874       -0.96133202425599        7.07023766922254
C           60.21835333483607        0.19001864914058        7.72727961073715
C           59.80414341938573        1.31140408568077        7.02451104056298
C           59.79432568304233        1.27969817353028        5.63029230529735
O           59.41370104775189        2.32986177483973        4.85461995678752
C           58.96091326879556        3.52979097616399        5.44741779416436
H           55.64954659662586        0.03051296461226        2.66594111628738
H           57.54623346493735        0.09157429641865        4.56462303136198
H           62.85407438826419        0.17071507115842        4.54614183980015
H           64.73929465270720        0.11539044528399        2.63613004359690
H           64.72326356069713       -0.11152947482575       -2.64795351502659
H           62.82616205522546       -0.16659586033032       -4.54647473086316
H           58.07603643372929       -3.40520160178801       -6.03667848698838
H           58.73183105122945       -4.23380854229127       -4.60015755520993
H           59.75750438557484       -4.01627446281188       -6.04266170431543
H           59.46920840220534       -2.21717755245375       -7.54378402298402
H           60.16428798637601       -0.22337575288513       -8.79444858556207
H           60.86472191820705        1.82007099643418       -7.62948972606361
H           61.61557761117516        3.95471615527667       -4.77328851622589
H           60.58366856854634        3.67981712633387       -6.20149106465504
H           62.26482057172978        3.06819082934937       -6.17783228798012
H           57.51874586604492       -0.13249169998826       -4.53078557017775
H           55.63348831442020       -0.09411551642934       -2.62042174623438
H           60.68507363935844       -3.68977860597752        6.22006214656221
H           61.71259449193607       -3.94585406015553        4.78520073740276
H           62.35369008051424       -3.04530499931293        6.18452907997812
H           60.94080481507793       -1.82248058447217        7.64405948808161
H           60.22425470628905        0.21390927045884        8.81154310831183
H           59.49488075362503        2.19707196143156        7.56331770064853
H           59.74332165778551        3.99758706138482        6.05751684060830
H           58.07120485665290        3.36134062769888        6.06642867734201
H           58.70253322859578        4.19743089040448        4.62328504589975
Zn          73.67307569968692       -0.07175272083690        0.00414359854249
C           70.23156740302635       -0.04473044514162       -0.00510448347890
C           70.87296975193881       -0.03693887423986        1.25056116285186
C           70.19345993274911       -0.03709419615744        2.51284769821258
C           71.14905194287203       -0.02032472808935        3.47728165677656
C           72.42120791355386       -0.00414181119012        2.81212103152998
N           72.21601680371541       -0.02186379776845        1.45823226198955
C           73.66481346104861        0.01461196708942        3.44881301542008
C           74.91168054537302        0.00385867107592        2.81784403310187
C           76.18041988818352        0.05774138448069        3.48761511990701
C           77.14080699268455        0.03073568878782        2.52823357582872
N           75.12342412938138       -0.04543362681980        1.46602005121812
C           76.46784375659092       -0.03566135047980        1.26406063524024
C           77.11498886609468       -0.09643733255821        0.01345853135058
C           76.47350957200499       -0.14986432374083       -1.24052546074214
C           77.15203035555763       -0.22287898016164       -2.50136384046774
C           76.19642337171861       -0.23236585104834       -3.46583042694887
C           74.92511668425760       -0.16098237482266       -2.80261867630800
C           73.68188433062676       -0.14637275773888       -3.44085306848644
C           73.68694884071951       -0.16221437625035       -4.93236203286858
C           73.24891507528685       -1.29283987313753       -5.63403253264215
O           72.84496924441993       -2.34492015673415       -4.87296322724026
C           72.35514464264416       -3.52185403150406       -5.48227251410525
C           73.25451200954252       -1.30418929425731       -7.02860321359126
C           73.69435133149604       -0.18312625021767       -7.71608769171122
C           74.13054709960468        0.94836934565698       -7.04346586721738
C           74.12844624346010        0.95794417895677       -5.64900526474376
O           74.52678710517783        2.02172699455327       -4.90145390582308
C           75.01393786027180        3.19232019507086       -5.52484357017896
C           72.43508040950924       -0.11222561868608       -2.81107559548513
C           71.16682005775353       -0.07275765153143       -3.48267835503179
C           70.20655340095048       -0.04568803593581       -2.52311733553804
C           70.87936146785624       -0.06150138231128       -1.25736741038770
N           72.22304531239320       -0.09780166992304       -1.45813014495474
N           75.13041738215897       -0.12067404740743       -1.44951489845345
C           73.66047639538733        0.05117984466026        4.93996491714783
C           74.07503034860208       -1.06501409447443        5.67815000762343
O           74.45848081095546       -2.14858843526908        4.95151233257456
C           74.91698081579780       -3.31797335036746        5.59856146604626
C           74.06710004070015       -1.03191868633243        7.07232918878946
C           73.64940950812586        0.11935374032883        7.72273256009970
C           73.23672317679807        1.23724176292680        7.01349722279509
C           73.23962438215960        1.20186497658146        5.61943019694225
O           72.86029049424529        2.24765570614937        4.83742894985329
C           72.39032377135376        3.44490101858174        5.42223412612622
H           69.12210313441099       -0.05131875700621        2.63691261854515
H           71.00852182577994       -0.02000452915037        4.54634636006066
H           76.31519049365475        0.11087539690509        4.55611346642852
H           78.21148844221663        0.05512170277032        2.65647739348674
H           78.22284015739086       -0.26331110064907       -2.62429099535298
H           76.33608226184607       -0.28459618117323       -4.53375377442568
H           71.46901145522787       -3.31776305299125       -6.09560801933454
H           72.07957319942365       -4.19403073007257       -4.66746634902133
H           73.12155604168427       -4.00321048972706       -6.10203702345320
H           72.92203845102389       -2.17387386039889       -7.57946636850840
H           73.69708412757561       -0.19133689824827       -8.80058781065567
H           74.46569280691985        1.80983859841796       -7.60551248297516
H           75.28047089644168        3.87779949806151       -4.71813481872305
H           74.24884641503925        3.66028793642964       -6.15636479703763
H           75.90514048536248        2.98437918003493       -6.12945948334172
H           71.03172243960165       -0.06611207449168       -4.55240480677455
H           69.13619468049087       -0.01398184113727       -2.65250672391030
H           74.13723727979563       -3.76022923894340        6.23071681006001
H           75.17706965174659       -4.02196910783344        4.80581995284322
H           75.80673091998752       -3.11743894067813        6.20782670318084
H           74.38043293237988       -1.89041409134969        7.65126422914321
H           73.64514255227016        0.14590836037893        8.80692833679791
H           72.91858584047360        2.12286778717349        7.54716295046428
H           73.16276782805370        3.92275589840023        6.03717812098011
H           71.49719317391079        3.26948539809183        6.03430450092750
H           72.13207249716410        4.10694742581684        4.59357843068907
