118
 energy: -213.432544162254 gnorm: 0.000261445395 xtb: 6.5.1 (b24c23e)
Cu          18.16649925632588        0.04047343190961        0.00026811687337
C           14.76134264061021        0.05680822495058        0.12841867407987
C           15.39862197466434        1.27515593123732        0.30847955331386
C           14.72569626591548        2.52851318265856        0.49765859704452
C           15.68624519697722        3.47530104448758        0.63639012912990
C           16.95592135019384        2.80584111123950        0.54535365365169
N           16.74980613294400        1.47279868595863        0.33799575533966
C           18.20266275790549        3.42971410903598        0.63687393649768
C           18.21847979588909        4.88500944415675        0.92150550450011
C           17.66844982683602        5.37884849386863        2.10688256702230
C           17.68352282667157        6.73472476013821        2.38019768574327
C           18.24760755685578        7.62786866961181        1.46433022483048
C           18.26336223824677        9.02396155512460        1.74182109495084
N           18.27610612836525       10.15233622774235        1.96729097779778
C           18.79653801090392        7.13938479493473        0.27492047101904
C           18.78284740439173        5.78148436313873        0.01103021746429
C           19.43496248961217        2.78839150243451        0.48997512933756
C           20.71375345018823        3.41811487892132        0.66107460607023
C           21.65710616653424        2.46416927669174        0.45735976938217
N           19.62018706120310        1.46416954263992        0.19495163480002
C           20.96396612786074        1.24541965562428        0.16499114064534
C           21.59503750563980        0.01863748615915       -0.10114062438693
C           20.93305888168897       -1.19725453977831       -0.34135924725868
C           21.59204203830436       -2.42177262604642       -0.68383707230821
C           20.62605065703801       -3.36214411991731       -0.83928620618571
C           19.36810966806542       -2.71906365904262       -0.58419386800557
N           19.58724172933593       -1.39895997123045       -0.29379111175412
C           18.12172665958663       -3.34676509785980       -0.64794088832867
C           18.10121578908743       -4.80108476737863       -0.93639610906305
C           17.45651159935646       -5.28605339640773       -2.07694879721622
C           17.43532590548212       -6.64134849384743       -2.35258783910454
C           18.05810670188165       -7.54284589853247       -1.48412609921262
C           18.03620850051872       -8.93831598265706       -1.76415674034590
N           18.01877833385786      -10.06601969462893       -1.99268527940640
C           18.70213547749618       -7.06328970655375       -0.33961443817499
C           18.72361041811555       -5.70599968604059       -0.07323846622219
C           16.89140087165278       -2.71104900843275       -0.46243768039233
C           15.61218880894270       -3.36845494183292       -0.45729858163067
C           14.67421939880997       -2.41353454887741       -0.24132707639853
C           15.37148235799619       -1.16701628992591       -0.10162674349121
N           16.71445062176390       -1.37695887604716       -0.23594214426054
H           13.67706918967183        0.06172181260456        0.17082583443307
H           13.65460455578392        2.65485102831033        0.50967432908256
H           15.55379614225279        4.53626718112128        0.77476480797472
H           17.24125799957861        4.68815986467137        2.82518225584467
H           17.26022158049495        7.10934454606498        3.30484781611673
H           19.23115249957043        7.82927205610077       -0.43897587664124
H           19.19875261568438        5.40781630914437       -0.91787805963119
H           20.86691562652686        4.45272041255671        0.92210853508195
H           22.72894378107338        2.56676417337741        0.51085156202224
H           22.65724540155623       -2.53628422573021       -0.80422561287375
H           20.75033589189573       -4.39583852165532       -1.11854414204576
H           16.98318708477328       -4.58901224004625       -2.75931365021371
H           16.93777192658736       -7.00917887288410       -3.24233933895093
H           19.18250933410030       -7.75954302331876        0.33786100436326
H           19.21313380935288       -5.33931198842861        0.82196741864975
H           15.45939396506908       -4.42765348176224       -0.58799199518034
H           13.60431271046091       -2.53019669589420       -0.17031990532151
Cu          29.06140007616285       -0.04038441739657        0.00245031958852
C           32.46656031892726       -0.04988287870733        0.13146123804205
C           31.82922656110345       -1.25671356956267        0.37697312794883
C           32.50209209037374       -2.49805705766160        0.63356219607739
C           31.54149607210437       -3.43592561619071        0.82319916946780
C           30.27185354870959       -2.77229972007467        0.69611006376044
N           30.47803175447024       -1.45242052013935        0.41705829678836
C           29.02509421414404       -3.39029251451633        0.82120818133625
C           29.00941294118316       -4.82801086704975        1.18434396335954
C           29.55958875044238       -5.25665547636592        2.39477073357605
C           29.54482757233563       -6.59568627168899        2.74130438540726
C           28.98083008096119       -7.53733762378218        1.87534267596832
C           28.96478936879128       -8.91632339711003        2.22815021952564
N           28.94975394888557      -10.03084690947687        2.51434640729176
C           28.43190514076888       -7.11428481944079        0.66111328792437
C           28.44528276989850       -5.77271160412757        0.32387717962148
C           27.79281824080907       -2.75783836417731        0.63978175024733
C           26.51399511050773       -3.37734208783199        0.84460751335350
C           25.57069472902757       -2.43573778140674        0.58966879185257
N           27.60766227118857       -1.45147283601591        0.27363998889102
C           26.26389629947597       -1.23458788615735        0.23191531274858
C           25.63288381403064       -0.02394377840482       -0.10012088896859
C           26.29491736750652        1.17714423359241       -0.40575354009469
C           25.63600016586051        2.38132652847237       -0.81412482532704
C           26.60203423663862        3.31187942101640       -1.02016185268332
C           27.85993134998809        2.68355591611926       -0.73041795397668
N           27.64073366273730        1.38111033339507       -0.36900753358638
C           29.10634221479920        3.30688178842053       -0.82783308407054
C           29.12683108708193        4.74340474729419       -1.19477561504607
C           29.77168363300293        5.16578961737786       -2.35986888271965
C           29.79246006303543        6.50407258886383       -2.70893934638170
C           29.16912380434283        7.45127776684456       -1.89103522342849
C           29.19011419320814        8.82956338736448       -2.24615383393870
N           29.20651334790065        9.94364492661817       -2.53388055090113
C           28.52501853280604        7.03452005008446       -0.72220751769105
C           28.50396410293560        5.69376674521550       -0.38228038522043
C           30.33662046673267        2.68211741633057       -0.60799745127601
C           31.61584208162940        3.33883033683853       -0.63818150710438
C           32.55376986900333        2.39693327740854       -0.37091811696887
C           31.85646852429661        1.15977335018174       -0.16427184069008
N           30.51351607609493        1.36218918795318       -0.30983189473616
H           33.55083208943191       -0.05255300802766        0.17410131582365
H           33.57317600040150       -2.62361490061658        0.65242597739144
H           31.67389919462079       -4.48787884246938        1.01865199576217
H           29.98663995417336       -4.52787991813256        3.07448881601452
H           29.96828495472748       -6.91945636289099        3.68489258142885
H           27.99753089748301       -7.84203094224200       -0.01430293799502
H           28.02931364160343       -5.45014107117516       -0.62395684449341
H           26.36078437308489       -4.39634815880463        1.16108786356774
H           24.49885216484332       -2.53523675791799        0.64862137527876
H           24.57081503178000        2.48916618396933       -0.94069719400171
H           26.47779447531090        4.32892769858380       -1.35502025665386
H           30.24538667463169        4.43278014462922       -3.00316592161117
H           30.29010273878233        6.82301400666520       -3.61730755826492
H           28.04426213046330        7.76651433234392       -0.08379561079680
H           28.01435915247919        5.37621705262327        0.53146717619748
H           31.76865793984977        4.38944699011953       -0.82575296096075
H           33.62367287463834        2.51722551899396       -0.30619289603938
C           23.00588527785622        0.00444044107080       -0.11964916203306
C           24.22203628173870       -0.01071243048337       -0.11934812568646
