262
 energy: -521.217273481632 gnorm: 0.000377869070 xtb: 6.5.1 (b24c23e)
Co          40.86720633826884        0.00374057369924       -0.07452652999217
C           37.49776957157373       -0.01537329652353       -0.21196505581052
C           38.15668890903483       -1.22109671831779       -0.10309741601985
C           37.49924523280150       -2.48885984358545       -0.00674290537152
C           38.46210794749595       -3.43460647143972       -0.11002525397847
C           39.70531972062344       -2.74210729635498       -0.28846813051985
N           39.51511559769094       -1.38649532576652       -0.20930250343005
C           40.90460762227771       -3.35728516268851       -0.62314114992260
C           40.92292202540143       -4.81680331798666       -0.86131245666954
C           41.75065965382145       -5.64598288998404       -0.09802900331112
C           41.76988660789298       -7.01166361095942       -0.31462863157238
C           40.95877307511856       -7.55294483436633       -1.30802212713679
N           40.97715276463683       -8.98619861954397       -1.54180858406892
O           40.25968919832255       -9.41933029605795       -2.40667934307776
O           41.70907852776098       -9.65356484922392       -0.85674605091946
C           40.13071358044716       -6.74468354773315       -2.08177803120025
C           40.11447230462061       -5.38098295049652       -1.85305264768022
C           42.08518478823271       -2.63963898876951       -0.75413133455519
C           43.33100945774089       -3.20515484957463       -1.17712206582312
C           44.27175435086550       -2.24412784235167       -1.01275752692795
N           42.25232575638545       -1.32088882775839       -0.40149046608939
C           43.59754588493376       -1.09501396196646       -0.49724047855215
C           44.25865400128737        0.03697837376951       -0.01462501877284
C           43.56036140841363        1.14818973505815        0.46421720664956
C           44.19315407568937        2.29597259834557        1.03216782663261
C           43.22469869761338        3.22740275309572        1.20602487732838
C           42.00550212218356        2.64923240718301        0.72586790883456
N           42.21358283682022        1.34559174640760        0.33824077323729
C           40.81922958805939        3.34944426250662        0.55990268810204
C           40.79185702453771        4.80004788644682        0.84656460996466
C           39.90990962096890        5.31262360281009        1.80313181707846
C           39.87785783268036        6.66803919627039        2.07520822305752
C           40.73125235063898        7.52025359709449        1.38009288097438
N           40.69833518822567        8.94524547394969        1.65830479107630
O           39.91919286033653        9.33301387733210        2.49076389570915
O           41.45206653206483        9.65179901344862        1.03936974843503
C           41.61479128767180        7.03081170412000        0.42223310806313
C           41.64311732484170        5.67293155214325        0.16195182730328
C           39.65542683125894        2.72870967913182        0.12382904707870
C           38.42278000927448        3.41288728521312       -0.13928691200288
C           37.48745045560506        2.46090505713717       -0.36519273114164
C           38.15051654285256        1.19776248095529       -0.24725091957230
N           39.49181778309812        1.37485473465654       -0.01335916589896
H           36.41554647978825       -0.02108383969523       -0.26257734604910
H           36.43607008233221       -2.61753056787595        0.11837631328888
H           38.35383095189867       -4.50645479562588       -0.07409792314517
H           42.36877878679969       -5.21353432910029        0.68007642000953
H           42.40263239554978       -7.66304687996584        0.27613819108268
H           39.51285839351447       -7.19014198031729       -2.85216714310602
H           39.48389724223019       -4.73948379011601       -2.45750482145157
H           43.45807306541153       -4.20785585898566       -1.55135122187100
H           45.33059183389186       -2.29604026320541       -1.20821594861383
H           45.24489560966132        2.36563968285778        1.25817535787567
H           43.31733353228437        4.21889683684871        1.61826467151945
H           39.25860214380697        4.63723256361455        2.34550820110650
H           39.20239628576223        7.07367027900335        2.81877820153134
H           42.26533356966639        7.71580357518480       -0.10810430879420
H           42.31694123441834        5.28128612184314       -0.59109917421053
H           38.30278443336178        4.48407028748857       -0.14727587363359
H           36.43831934970802        2.58206803824504       -0.58240244863752
Co          96.42315291505182        0.04628504549942       -0.03782754139471
C           99.79166845738733        0.11031879556435       -0.17450043956046
C           99.13655915911474        1.18979217563280        0.37818179349809
C           99.79762459498849        2.33116420852194        0.93414322921053
C           98.83749152277787        3.25152570084039        1.18604601258358
C           97.59225143369922        2.67601975705768        0.76760038785917
N           97.77853300815320        1.38624774351783        0.34223848426735
C           96.39333796862797        3.37315793974114        0.68705949317863
C           96.37997081027545        4.81837741781604        1.00032343622102
C           95.55872996377762        5.31211018426635        2.01870715378285
C           95.54566059011329        6.66192915364016        2.31897270334676
C           96.35655909079782        7.52737899513623        1.59019809939553
N           96.34539864195591        8.94622743478163        1.90016755624388
O           97.06420149184748        9.66391729801839        1.25324845088162
O           95.61806717861167        9.31785790954559        2.78517134572439
C           97.17802126598247        7.05699989298112        0.56961687164355
C           97.18806080805714        5.70458701432075        0.28123789425954
C           95.20915466574016        2.75431366347105        0.31261961337676
C           93.96090107217343        3.43493967661560        0.14030667336164
C           93.01766012367277        2.47974507236170       -0.04299420425464
N           95.04000458460810        1.39757663052641        0.16201328076023
C           93.69309812794921        1.22198860755923        0.00922270657784
C           93.03309423728457       -0.00909664026495        0.05483879920377
C           93.73330496756796       -1.21837603384526        0.07606748164256
C           93.10344641240698       -2.49618180143776        0.18127880462266
C           94.06848330802256       -3.42346029284792       -0.03026333933365
C           95.28266135180395       -2.70566263367204       -0.27907892611419
N           95.07599446359445       -1.35246204290012       -0.14101605548971
C           96.46226356806167       -3.28991030126199       -0.71750136323972
C           96.48441678828708       -4.74016084321887       -1.00632124790376
C           97.37473038649787       -5.58029451559324       -0.33025459147849
C           97.40251918915274       -6.93666124886221       -0.59811056429700
C           96.53629454311198       -7.45737749677558       -1.55528674608318
N           96.56549541522458       -8.88026382182919       -1.84500937580213
O           97.35275355565774       -9.55739821046780       -1.23510028738852
O           95.80089346266496       -9.29549421157218       -2.67766762561955
C           95.64354976538729       -6.63826656514231       -2.24062702608824
C           95.61948537671509       -5.28416830365841       -1.96087000452636
C           97.62497444167468       -2.55086307109160       -0.89763544068763
C           98.85332954340900       -3.08544662872975       -1.40970021754056
C           99.79224796300197       -2.12222116458716       -1.25820096164399
C           99.13486790445820       -0.99805976303548       -0.66396032377369
N           97.79376688555099       -1.24751125095610       -0.50897404542406
H          100.87385631773283        0.13196108112622       -0.22177013307479
H          100.86116629220705        2.40210515818406        1.09658046269057
H           98.94890263130434        4.23496802764213        1.61300337010727
H           94.94125770619222        4.62619120554189        2.58683703772026
H           94.91812987272523        7.05292881971452        3.11080004701819
H           97.79588015598395        7.75213483911945        0.01399023504549
H           97.81364537505172        5.32774423703337       -0.51947163006843
H           93.83383855530094        4.50504775314178        0.15816139813969
H           91.95668253060587        2.59909685309558       -0.19167412339771
H           92.05560317234986       -2.64690596944046        0.38475909251917
H           93.97687942784809       -4.49731336861747       -0.02257669184204
H           98.03616225222632       -5.16432302597029        0.42073842952477
H           98.08467036018719       -7.59634940775549       -0.07545830695640
H           94.98274425262125       -7.06782217315769       -2.98392800979863
H           94.93839342715584       -4.63378635144183       -2.49718291227985
H           98.96863264207882       -4.07230373485082       -1.82766415723446
H          100.84007253960982       -2.15403342130790       -1.51035584707781
C           45.66141260473806        0.05280816963011       -0.00108287189666
C           46.88619347909034        0.05992590975769        0.00756134231972
C           48.22794261108542        0.06425196231511        0.01516672427214
C           49.45926777717619        0.06234569639936        0.01990237808787
C           50.79591942433861        0.06019425589580        0.02235806413743
C           52.02742527649873        0.05472716384241        0.02423263628480
C           53.36861231777407        0.04852275723887        0.02131001945104
C           54.59392955598663        0.04203468422101        0.01703581223704
C           64.18247660114223        0.04150528068714        0.06172327596060
C           65.40821549777849        0.04260847999449        0.07574557638401
C           66.74855913084392        0.03980521494201        0.08716890617484
C           67.98074424098706        0.03612239085401        0.09165955657848
C           69.31629799453785        0.03385890210174        0.08980172316164
C           70.54849958654569        0.03115467888848        0.08384545615227
C           71.88878114901706        0.02756798147472        0.07308286623648
C           73.11457983467068        0.02303419390231        0.05979890411066
C           82.69991850004344       -0.00531574280367        0.10025915446236
C           83.92550843550944       -0.01392444047351        0.11803974582493
C           85.26593198201668       -0.02274819862087        0.13001232356637
C           86.49786950038470       -0.03210280557540        0.13295257639874
C           87.83378128979741       -0.03729498421243        0.12991796705595
C           89.06554133176373       -0.03981309183875        0.12068445848346
C           90.40645830422113       -0.03681194132203        0.10313164149826
C           91.63152141384614       -0.02879345901656        0.08271388089139
Co          59.38891354823849        0.03940418365632       -0.00309844789422
C           55.99517389056036        0.03955497131688        0.00637689969218
C           56.67946506639259       -1.13096120912978        0.34770872689544
C           56.03291626319857       -2.34016042416756        0.74715016170983
C           56.98693942713724       -3.30308158681378        0.76315077532446
C           58.21098451933504       -2.67622151441292        0.36533624943081
N           58.02160072688290       -1.32759597449454        0.18133153741158
C           59.38829261102049       -3.35747611755518        0.08262304705030
C           59.38075382508567       -4.83583444222056        0.10938037635521
C           60.24314690362434       -5.53379247247691        0.96041365524357
C           60.23419890994844       -6.91642363198229        0.98988724389987
C           59.35897627764219       -7.60763674267290        0.15710855585125
N           59.34715266808929       -9.06023007676653        0.18261589698585
O           58.57025999927176       -9.62381977399622       -0.54435926246393
O           60.11491805959383       -9.61056471404606        0.92926258229792
C           58.49417174980655       -6.93208542234936       -0.69912342360309
C           58.50687160519191       -5.54942551150883       -0.71689859710925
C           60.56923242831061       -2.69308139058875       -0.21855222755471
C           61.80159664794329       -3.34037704765915       -0.55426467093974
C           62.75865382929562       -2.38061107003367       -0.55272590403843
N           60.75841921368303       -1.33596229605474       -0.09738190585583
C           62.10458565972471       -1.15133443444396       -0.23446814876023
C           62.78211350478842        0.04151114830904        0.03931671545145
C           62.09505111015840        1.23627365004459        0.27755719004090
C           62.73865290423583        2.47379408910595        0.58529276817058
C           61.78433926196325        3.43417497719857        0.51955655957261
C           60.56317227877784        2.77719965576080        0.16322552825001
N           60.75475399091278        1.41790621258932        0.08597182228794
C           59.38839302315789        3.43264929551801       -0.18026764253094
C           59.38880095921653        4.90917943471164       -0.26090355709231
C           60.26088446666822        5.56756202910380       -1.13331999997506
C           60.26044356855277        6.94789344540140       -1.21815400638846
C           59.38505958137978        7.67681273380483       -0.41831558408157
N           59.38148974562600        9.12722455926682       -0.50246042595324
O           60.15161695632924        9.64253551885523       -1.27136059106179
O           58.60853451015328        9.72421327298496        0.20174628597093
C           58.51279942590809        7.04108534186573        0.46053901380495
C           58.51645546364630        5.66010202135081        0.53309389912631
C           58.21088602557388        2.74504695489326       -0.44346478389582
C           56.98289706111890        3.36349579510215       -0.84280830280642
C           56.02577597553617        2.40581678873233       -0.77847120679922
C           56.67571189101900        1.20584224085341       -0.35737841919988
N           58.02072970911074        1.40184972594977       -0.21979093602483
H           54.98220173570854       -2.42745714438705        0.97162936620014
H           56.88127319368154       -4.34446551067770        1.01991403300271
H           60.91010941549832       -4.98393434646008        1.61409714510504
H           60.89386315699619       -7.46611993687894        1.65046155891807
H           57.82521027549869       -7.49373881382307       -1.33999653844489
H           57.84703680626833       -5.01155168384627       -1.38758403685605
H           61.91112176216986       -4.39281420952811       -0.75899555467988
H           63.81513379630722       -2.48119057741880       -0.74184382697868
H           63.78773024438895        2.57929932262736        0.80966326042640
H           61.88781647359040        4.49263343222400        0.69439071186591
H           60.92883399444029        4.98780724424327       -1.75959582153535
H           60.92682282708228        7.46693437707471       -1.89654600573880
H           57.84486181264281        7.63185604371465        1.07578793911742
H           57.85072786314903        5.15352166557046        1.22205342934263
H           56.87609176676166        4.39679796365542       -1.12984314729167
H           54.97164108482445        2.49045320359535       -0.98734617659995
Co          77.90733327408508        0.00727948629544        0.02050784141286
C           74.51482514798704        0.01685166256570        0.04078365234517
C           75.19742479244908       -1.16052161729434        0.36393035149319
C           74.54922767617551       -2.37268392626099        0.75214509545973
C           75.50073668240955       -3.33820336507644        0.75323206477970
C           76.72494485887269       -2.71012372724066        0.35756813347999
N           76.53759392424642       -1.35880149386393        0.18846164249123
C           77.90011743879749       -3.38966608819622        0.06436069718953
C           77.89663849439319       -4.86804224797945        0.08706454501761
C           78.76666019775881       -5.56223909121448        0.93362786244856
C           78.76462067630065       -6.94477128385936        0.96303154555619
C           77.88854522167800       -7.63987011600879        0.13439124541559
N           77.88411949970146       -9.09255769688370        0.15966010894362
O           77.10742964348236       -9.65994906873973       -0.56461517126373
O           78.65713965766547       -9.63903825526323        0.90364269362273
C           77.01627551198132       -6.96821246684516       -0.71730177852038
C           77.02201584158301       -5.58537244118028       -0.73493496437003
C           79.08107321697072       -2.72328865926965       -0.23522519140797
C           80.31116333677774       -3.36822939403189       -0.58297502075542
C           81.27061800272742       -2.41071009787948       -0.56767584124012
N           79.27315970379136       -1.36884924455005       -0.09530568113918
C           80.61991938356999       -1.18530516151627       -0.22910564824686
C           81.29979999322370        0.00008697376959        0.07079951072427
C           80.61425314414774        1.19259124391599        0.32420077481468
C           81.25873213335636        2.42585137750290        0.64602042682178
C           80.30867254283987        3.39028273347177        0.57374628873952
C           79.08889122006603        2.73926279711454        0.20277304229239
N           79.27615273993241        1.38033191068974        0.12107167838891
C           77.91819231694146        3.40026180911573       -0.14723623769142
C           77.93149881267810        4.87623403700484       -0.23529251889634
C           78.81569803264581        5.51951552256921       -1.10699238259505
C           78.83112396035051        6.89908875621647       -1.20080847859740
C           77.95938558658666        7.64269495489816       -0.41056464595814
N           77.97232882635707        9.09252307515778       -0.50419273464734
O           78.75266773514011        9.59419249238765       -1.27176170575303
O           77.20163473539988        9.70255544402784        0.19123976657852
C           77.07559880453279        7.02225604167480        0.46766532784161
C           77.06353098324379        5.64173166437204        0.54935674213052
C           76.73788971397708        2.71834063027839       -0.40979727995301
C           75.50982237928389        3.34191598677589       -0.80151323722770
C           74.54910903313794        2.38831887000468       -0.73088087412465
C           75.19718632856971        1.18473874926347       -0.31678413476389
N           76.54316613164856        1.37491687472769       -0.18728746684571
H           73.49924115803442       -2.46002923960932        0.97998587428379
H           75.39311538811774       -4.38221735943685        0.99825325262981
H           79.43441746061472       -5.00911467379672        1.58373668708616
H           79.43035370986235       -7.49131432357498        1.62012194042976
H           76.34696232619122       -7.53305999985559       -1.35499247746641
H           76.35639151929894       -5.05073703304402       -1.40247543017312
H           80.41774518415110       -4.41753676871189       -0.80460206693581
H           82.32661619620340       -2.51080144204866       -0.75963309617519
H           82.30580720796605        2.52647069168468        0.88167702194957
H           80.41411612333312        4.44757172356327        0.75440655693010
H           79.48100750421840        4.92826681823329       -1.72529364792561
H           79.50721438416858        7.40627305968623       -1.87855685368577
H           76.41123528862121        7.62443242731932        1.07569325697923
H           76.38925261644428        5.14728673211768        1.23880377982963
H           75.40515228438663        4.37590376829606       -1.08687363191972
H           73.49392182214679        2.47761952027003       -0.93247125185494
