189
 energy: -362.517346308892 gnorm: 0.000776532627 xtb: 6.5.1 (b24c23e)
Cu          38.52961141380981       -0.04915319583541        0.01867285535730
C           35.12550054504252       -0.11668321831740        0.03924651854340
C           35.75792603998828       -0.16438047831993        1.27224285591307
C           35.07954594269318       -0.20551484631413        2.53641253700296
C           36.03552651501727       -0.22218103522673        3.49743125281583
C           37.30841414044257       -0.20127942538612        2.82808611644278
N           37.10821661295903       -0.15951488539282        1.47825135091964
C           38.55106943587430       -0.18970346269039        3.46485424610064
C           39.78577262496265       -0.13366385119144        2.81435118403075
C           41.06280687018483       -0.17442348976064        3.47039090998227
C           42.01024718205559       -0.12345808486160        2.50078996426767
N           39.97482593945925       -0.06936189543536        1.46087285174555
C           41.32074473310225       -0.05756280389190        1.24626535675972
C           41.95350498760403        0.00022513095166       -0.00256461211272
C           41.30335728334781        0.04845845027918       -1.24268163086162
C           41.97586531958478        0.07871467828645       -2.50773392619793
C           41.01547691631753        0.11122523873671       -3.46532910214459
C           39.74739131583810        0.10882999780017       -2.79087110388097
C           38.50355701200578        0.11833956396376       -3.42672252473686
C           38.49311996395394        0.19300539902682       -4.90805309934414
C           37.94872861496766       -0.84820873650065       -5.66454165245434
C           37.94000086955860       -0.77759632217689       -7.04531356333091
C           38.47125018753299        0.33765458341116       -7.69614576239655
C           38.43516171569306        0.36895436462476       -9.17755209429161
O           38.97706879814476        1.47748485177085       -9.70505490989320
O           37.96967920104247       -0.50374729393474       -9.86566554482275
C           39.01488195889662        1.38071693356785       -6.94555160177109
C           39.02674599180808        1.30544990578740       -5.56372344302466
C           37.26948088992921        0.05997241503202       -2.77551571936701
C           35.98734907360357        0.11127318191490       -3.42536432145735
C           35.04477659034995        0.04055403901966       -2.45359625451338
C           35.74064936154710       -0.04395542248844       -1.20120983302947
N           37.08804388395853       -0.02504325924203       -1.42514144042882
N           39.95463506817973        0.06182452388956       -1.43931358440444
C           38.56041508018463       -0.23628569861469        4.94772131320913
C           38.05106079975680       -1.34661771472554        5.62570557038748
C           38.05701734973695       -1.38323819099007        7.00798004160697
C           38.56717820061127       -0.30805802687791        7.73818223607333
C           38.54339738834520       -0.38983083457292        9.21802897332314
O           39.05828703660508        0.69132873263622        9.82382559865553
O           38.10836002235304       -1.32469821048425        9.84123136809362
C           39.07732024318794        0.80294005831506        7.06576840481384
C           39.07550052879490        0.83466222626878        5.68227086735933
H           34.04046425887112       -0.12562851223677        0.04635483436023
H           34.00784331435705       -0.21269447679801        2.65794860269167
H           35.89883742802045       -0.23600538913701        4.56673966390817
H           41.21027323391480       -0.24683461680996        4.53578149150712
H           43.08259805780364       -0.13440930646117        2.61349041537008
H           43.04650186097256        0.06819869684746       -2.63563866436580
H           41.14905100592215        0.12137560939124       -4.53496581633913
H           37.54706487955861       -1.72035949161810       -5.16125249098692
H           37.52379225347853       -1.58428312373099       -7.63871798481787
H           38.91381319288604        1.41970954514615      -10.67222131389171
H           39.42540570155040        2.24953527140372       -7.44643971320682
H           39.43821966933159        2.12147072977711       -4.98024635550721
H           35.83534754973149        0.20260333694466       -4.48878384593878
H           33.97151505864746        0.05104450926059       -2.56002234846621
H           37.66436207926999       -2.18676635378203        5.06013239231815
H           37.66757607955937       -2.24350461646401        7.54118302761269
H           39.00395220690490        0.56036613091874       10.78435167716936
H           39.47198121543172        1.64061976633959        7.62857792671993
H           39.46099090828391        1.70288712474296        5.15956394480123
Cu          60.33591777131860       -0.03190282502983       -0.05437356495516
C           63.74028513386695       -0.10533629230645       -0.08795239445966
C           63.10614202115899        0.00132884515874       -1.31633828379428
C           63.78286281298026        0.11408677756399       -2.57699698686615
C           62.82572902582744        0.22277907167512       -3.53084413234058
C           61.55370540791696        0.16853717446929       -2.86165703728888
N           61.75561470135269        0.03906475849524       -1.51770189629020
C           60.31076893874980        0.27363320595941       -3.48938930905639
C           59.07700576907362        0.26380954607071       -2.83453025330617
C           57.79923432385196        0.32612241643986       -3.48735107511401
C           56.85290927758835        0.25942934321165       -2.51755738330531
N           58.88920363395029        0.15155356374893       -1.48387917769062
C           57.54356213584600        0.14772191559051       -1.26701760864890
C           56.91131640928296        0.02328140909239       -0.02252655159806
C           57.56301418207862       -0.11277664051062        1.21041739978297
C           56.89252385381605       -0.25891611538093        2.46842506080282
C           57.85430432102916       -0.34809271185835        3.42106187365344
C           59.12120324648694       -0.25139173965774        2.75139265026031
C           60.36577263536076       -0.31199559651813        3.38293105705300
C           60.37774070481174       -0.41847206155696        4.86237766617861
C           60.92999904671787       -1.53939184976322        5.48773411695443
C           60.94171258623400       -1.63426883533433        6.86708319893484
C           60.40591498086663       -0.60798318164004        7.64755550860595
C           60.44557345384209       -0.75374932350678        9.12213865989104
O           59.90073793296838        0.28154782934805        9.77916755751810
O           60.91618490331747       -1.70050560063196        9.69994266934502
C           59.85432176535574        0.51401238648993        7.02815788359252
C           59.83914914445269        0.60426583235273        5.64727439527114
C           61.59941008407676       -0.27976565450771        2.72922570667947
C           62.88220265144099       -0.30634661659359        3.37926832103782
C           63.82376666445114       -0.25505617386931        2.40532180497660
C           63.12656635063623       -0.18478031259098        1.15278894600667
N           61.77943389558247       -0.19488615272054        1.37862334979973
N           58.91201698243101       -0.12029011085279        1.40567896760396
C           60.30043434438304        0.40507491419542       -4.96701000938645
C           60.80023765598156       -0.62235724949105       -5.77136159613764
C           60.78991563964666       -0.49860948630953       -7.14843651559375
C           60.28454387950803        0.65713564801587       -7.74712241788340
C           60.29865946523273        0.74497528046549       -9.22663036691937
O           59.78848602992950        1.89183060926756       -9.70143800090213
O           60.72167420047398       -0.11604932389769       -9.95572682188857
C           59.78617155087900        1.68685889988069       -6.94831885395007
C           59.79277800365035        1.55825892010345       -5.57039466259330
H           64.82527920945211       -0.11591979688588       -0.09774107327423
H           64.85437315816732        0.11616799129834       -2.70046014536897
H           62.96126509324628        0.34231694708097       -4.59369091556572
H           57.64982491332913        0.39715787672195       -4.55255255678050
H           55.78047594890511        0.27597436737065       -2.62883765731465
H           55.82216664680099       -0.29271418933699        2.59464295544237
H           57.72290904372369       -0.48150516598163        4.48266639890466
H           61.33568947274834       -2.34258720343035        4.88309583194279
H           61.36416052942281       -2.50357583181726        7.35900030298463
H           59.96563086685020        0.10887372833377       10.73245224541753
H           59.44038266436151        1.31436585449916        7.63008089552774
H           59.42139322609427        1.48157246640002        5.16621805186325
H           63.03541206710518       -0.34726930734047        4.44563603370712
H           64.89713705840559       -0.25650599464817        2.51114909515966
H           61.18242247718454       -1.52513617427033       -5.30849398190977
H           61.17141190496138       -1.29403739279679       -7.77919969338064
H           59.83551854398517        1.87064938315447      -10.67100183009845
H           59.39638801273068        2.58698761392535       -7.40871967153996
H           59.41645927723699        2.36330895149696       -4.94928155760483
C           43.37169371057954        0.00294680151810       -0.01185755172572
C           44.58563145224154        0.00551369264990       -0.01876245938060
C           54.27922020094577        0.02895411964790       -0.00996994226263
C           55.49331357311582        0.02621558176336       -0.01236045407991
Cu          49.43216087842364        0.01787977963650       -0.01370256063290
C           46.00370503525384        0.00904255878697       -0.02078113856762
C           46.64936511550249       -1.23418771677495        0.01967004396617
C           45.97353026401466       -2.49813861395843        0.01153643757962
C           46.93056361863498       -3.45811334872258        0.06519797563482
C           48.19903581271406       -2.78592121536221        0.11787645371367
N           47.99565182129719       -1.43387074264194        0.07774404151708
C           49.44096854499607       -3.42191336041018        0.18238100243396
C           50.67951421152785       -2.77589173560576        0.17956534657758
C           51.95054493902902       -3.43124243056136        0.31468113026456
C           52.90293633066049       -2.46624630717938        0.26520469170513
N           50.87657231535519       -1.42711821487346        0.06705106307523
C           52.22166570003123       -1.21512852061884        0.10802724031304
C           52.86136067229877        0.02687778478045       -0.00772223842503
C           52.21557727052291        1.26540722393253       -0.12351435079058
C           52.89098447386880        2.52070217388087       -0.27406748738583
C           51.93382072978189        3.48086150322115       -0.32439444981245
C           50.66556366334618        2.81840986783796       -0.19784366732591
C           49.42373747366109        3.45760823773435       -0.20850544833452
C           49.41958789288792        4.93899635660512       -0.28342607459239
C           49.99647598533537        5.69989709525032        0.73684011501543
C           49.98539857247941        7.08085370874199        0.66937707710322
C           49.40280925363446        7.72733000855607       -0.42255584451002
C           49.41776944100280        9.20904332467161       -0.45138200535734
O           48.82760788346087        9.73130966423014       -1.53741483262608
O           49.90650253606093        9.90175821573946        0.40470620274560
C           48.82900534809895        6.97212924302888       -1.44590682297352
C           48.83602753441900        5.59019087305931       -1.37308155078914
C           48.18453938497689        2.81533072018577       -0.15347698352430
C           46.91236851303500        3.48108908711926       -0.10928462437964
C           45.96000296963320        2.51619407552306       -0.05928333195961
C           46.64238154601702        1.25576468790450       -0.06142489075707
N           47.98792699495236        1.46246786252270       -0.11376925133796
N           50.86917434640770        1.47031560282969       -0.08766663325493
C           49.44476869002076       -4.90307277802922        0.25862385355473
C           48.85213675764793       -5.55818925144929        1.34135932888966
C           48.85665563715893       -6.93913449300679        1.40922767712198
C           49.44935664888874       -7.69157582105438        0.39329401831890
C           49.42569955418202       -9.16917573052654        0.50895415701919
O           50.02804221767226       -9.79759013090630       -0.51208064145989
O           48.92107502304164       -9.77219565053263        1.42182489296264
C           50.04073997074592       -7.04246863117051       -0.69098241159442
C           50.03953273511023       -5.66000385363733       -0.75399713996266
H           44.90372975535134       -2.62352076281057       -0.03831058255501
H           46.79472496770175       -4.52744437677144        0.05720446799766
H           52.09054171891771       -4.49216737105613        0.44456701213855
H           53.97293114870257       -2.58004881337821        0.33524209005791
H           53.96073066034335        2.63996295428409       -0.33879706868495
H           52.06898508202195        4.54308014438614       -0.44911277230093
H           50.43896084540042        5.20018141297755        1.59114846372483
H           50.42509199691057        7.67778202188629        1.46088822345930
H           48.87962422274890       10.69911075043547       -1.47990861826611
H           48.37949564187740        7.46952362817916       -2.29720921427427
H           48.39975186618092        5.00325258011063       -2.17353399660926
H           46.77062496271683        4.54972277775742       -0.10391796034322
H           44.88926468125322        2.63616820011832       -0.01579324237634
H           48.40184556541016       -4.97543506755957        2.13693681901953
H           48.40307710533748       -7.45404669014668        2.24903297723255
H           49.96960278081734      -10.75495545885434       -0.36104068877532
H           50.49847162987083       -7.62268848912134       -1.48344810559480
H           50.48833188724634       -5.15608308849386       -1.60261547928567
