370
 energy: -646.182102907384 gnorm: 0.000940245203 xtb: 6.5.1 (b24c23e)
C           81.46907702156777       -0.03750249492477       -0.13523347760324
C           82.07423310691982        0.96060026491753       -0.89019146368020
C           81.42741550908266        1.95852005238621       -1.67021701066368
C           82.39567062548176        2.73227093579446       -2.24902796036718
C           83.65966420979564        2.22858716034060       -1.83928180619999
N           83.42010770364445        1.16479108317754       -1.02329558665501
C           84.92733644067285        2.71898657590055       -2.19960108445092
C           84.95008782318848        3.83808210440605       -3.06120889679577
C           84.96375808642044        4.80143657368433       -3.79906002163043
C           84.99212912381314        5.92430310556020       -4.65713978565535
C           83.81118490756317        6.51399724562957       -5.12294205422279
C           83.89539302358915        7.61203626285445       -5.96031786839530
N           85.05151966759826        8.14271495106563       -6.35035638241962
C           86.17865221588494        7.58790014015563       -5.91187178368279
C           86.20400080923906        6.48876496018879       -5.07223150725511
C           86.15668774509727        2.18924738344862       -1.77346918387878
C           87.43928040115928        2.72942228694153       -2.18030137578357
C           88.37922100599918        1.97277068609814       -1.57583285351523
N           86.32890211496189        1.13202068424601       -0.94426109418436
C           87.66516874071898        0.97533897695573       -0.80205423303916
C           88.31285042310704        0.00563221115074       -0.01621766655037
C           87.68268686787808       -0.98652574805458        0.75823099392599
C           88.32293407155045       -1.97601838980253        1.54918360092029
C           87.35052966245070       -2.75127021342330        2.12101032901152
C           86.09129376781539       -2.25442598410698        1.69464047484686
N           86.33842527573943       -1.18942036882012        0.87651434722604
C           84.82514328848536       -2.75836036774106        2.04031342595053
C           84.80300003314041       -3.88260727259631        2.89376383688288
C           84.78851648539231       -4.85284658232270        3.62285637543682
C           84.76944310506296       -5.98426628463868        4.46944420299078
C           85.95674275862706       -6.56638525388541        4.92930607670928
C           85.88424135030439       -7.67448191334678        5.75428910883607
N           84.73370461295492       -8.22206886701717        6.13777671517520
C           83.60062644717314       -7.67460252363666        5.70501528617466
C           83.56348693792526       -6.56643237098071        4.87776356179997
C           83.59523572977089       -2.23490341194923        1.60281345784900
C           82.30653478899887       -2.78323504010604        1.98846879715263
C           81.37318954866888       -2.02176787672863        1.38202218676143
C           82.09501974405234       -1.01221773263402        0.62707371374609
N           83.43555911763113       -1.17479745866731        0.78601243260695
H           80.38397003535725       -0.04740522288855       -0.15108880212549
H           80.35848659965974        2.06093777834853       -1.76816386268463
H           82.25740954342372        3.57815728759495       -2.90323262977950
H           84.13877652697067        0.60380803307339       -0.57835177263538
H           82.84791060421834        6.11418950597937       -4.83004972326076
H           82.99513996182641        8.08935557854307       -6.33649407472296
H           87.10393503194990        8.04589604748893       -6.24930552504368
H           87.14507524760840        6.06856843131845       -4.73878054170909
H           87.57264989294377        3.57258864624763       -2.83913347711167
H           89.45263142901319        2.05940202409337       -1.62964439782925
H           89.39072984453747       -2.07539985517756        1.65920826320963
H           87.48527201526279       -3.59387549665342        2.77993006700251
H           85.62278733949185       -0.63347432830471        0.42007750343503
H           86.91570710019911       -6.15294193578582        4.64100702551380
H           86.78964757023245       -8.14637279440026        6.12506677114406
H           82.68026294115563       -8.14618799201124        6.03733459649813
H           82.61788066614042       -6.15274544220682        4.54877041802323
H           82.16824143388106       -3.63415365951136        2.63649588990026
H           80.29872097313493       -2.10865665514862        1.42100205547733
C          155.83546280730752       -0.16606007417671        0.03140460568362
C          155.22725934283815       -0.99646103742742        0.96578226139073
C          155.87065522650221       -1.85675635079245        1.89768504746553
C          154.89991074695578       -2.48835009602713        2.62581932816261
C          153.63794308692050       -2.03064870363129        2.16007967687565
N          153.88091658517001       -1.13653416886518        1.16190962436484
C          152.36880572373005       -2.41113631964066        2.63120791801158
C          152.34060368960220       -3.36016499943822        3.67708098424563
C          152.31769446146930       -4.18075267954084        4.57079780148847
C          152.27795635411883       -5.13924416670152        5.60889825858743
C          153.45221778288055       -5.67362153245618        6.15184582035269
C          153.35607703912115       -6.61096357583110        7.16483066242376
N          152.19444082572832       -7.03571263875905        7.65538659651958
C          151.07359578762254       -6.53245460164918        7.14461634966299
C          151.06021486293747       -5.59130459424161        6.13082026464579
C          151.14193511084167       -1.92884908997247        2.14622635076024
C          149.85841429681591       -2.34514235508966        2.67658269177770
C          148.92099971512741       -1.68467214555451        1.96494522639473
N          150.97266592638144       -1.03706648373488        1.14025769263026
C          149.63754861324321       -0.87035769984908        1.00220500733460
C          148.99114689834565       -0.05111763668746        0.05874133535899
C          149.62369833687069        0.75800354527548       -0.90416391660496
C          148.98613753778179        1.59193029153696       -1.85928984768713
C          149.96115809121542        2.21953608743601       -2.58689403620689
C          151.21919396579671        1.78426478084894       -2.09497074462944
N          150.96871953593259        0.90225779521511       -1.08295026350996
C          152.48754081904667        2.18362606628439       -2.55158077755043
C          152.51473376877689        3.12312461512197       -3.60485442724752
C          152.53692423475673        3.93432835683751       -4.50743522431649
C          152.56496663650273        4.88144188909023       -5.55596058482626
C          151.38242010670419        5.37950175128924       -6.11592975564494
C          151.46403623989531        6.30684909236601       -7.13920844947265
N          152.61913351134305        6.75523046169804       -7.62436037162592
C          153.74771005945814        6.28663684261487       -7.09753610414731
C          153.77573162216689        5.35818402717469       -6.07237445828244
C          153.71598146255693        1.72455168222695       -2.04314060222310
C          155.00670256690097        2.16226036313330       -2.54578585122644
C          155.93768538812847        1.50522344560933       -1.82447402143960
C          155.21250443645212        0.66923518801183       -0.88353345110501
N          153.87226870284371        0.83123672516512       -1.04611893218195
H          156.92060228848948       -0.18097945025938        0.02389848341811
H          156.93908293145500       -1.96962582533101        1.98939650883243
H          155.03528912918949       -3.20782270719276        3.41743229924005
H          153.16415369006066       -0.64485807045177        0.63875869817843
H          154.41957885446817       -5.35597901942536        5.78191544942580
H          154.25092796072286       -7.04222792972510        7.60417253447836
H          150.14350021604506       -6.90096119998931        7.56765608610146
H          150.12387751064102       -5.20802212489612        5.74380093796384
H          149.72260623665764       -3.04740777394078        3.48351557716848
H          147.84778545356173       -1.72710466379196        2.05971083343756
H          147.91836134156244        1.69352795140366       -1.96760647311699
H          149.82883342992892        2.92269081551851       -3.39336386615592
H          151.68285502508667        0.42669185581129       -0.54127434125222
H          150.42006868105992        5.04158473511830       -5.75077967292100
H          150.56254996445583        6.70982481451095       -7.59180503059694
H          154.67198998157770        6.67364320722486       -7.51684378556767
H          154.71799979467016        5.00347038355202       -5.67255218000773
H          155.14786043880241        2.87510097362611       -3.34268252330102
H          157.01257474062484        1.55876178844134       -1.89722074275346
C           90.94284915597837        0.00723099538885        0.02794102853582
C           89.72186897727813        0.01174568722453        0.00634661400135
C           92.29466415429002       -0.00128228203238        0.04333056103683
C           93.51576025405114       -0.01437181773549        0.05911960888845
C          104.46340078692199       -0.10244236468000        0.04291012952822
C          103.24083346742464       -0.10131640682173        0.04724511297482
C          105.81209657009184       -0.10593512924744        0.04045383305305
C          107.03468862926918       -0.10193178221195        0.03911262676886
C          117.97855105171455       -0.05127729468665        0.01207390556313
C          116.75588431268885       -0.05596537800244        0.01105213123134
C          119.32709585014894       -0.04948032141211        0.01544419256385
C          120.54974576214418       -0.05031003756359        0.01987339592245
C          131.49328529698121       -0.06926890816545        0.03777562345116
C          130.27069196117571       -0.07292205672839        0.03196649410489
C          132.84192107165165       -0.06606417461675        0.04089286775403
C          134.06447424270857       -0.06083966810712        0.04793655489781
C          145.01047018848567       -0.01483963639172        0.07175775209051
C          143.78890843224613       -0.01410645760618        0.07043341747573
C          146.36163229207372       -0.02086227529916        0.06876908295606
C          147.58305363591066       -0.03213901648490        0.06398402135504
C           94.92405118402525       -0.03468216941611        0.06148496887430
C           95.54841999585990       -0.25241513998314       -1.18175633658110
C           94.90603997798414       -0.46449834582097       -2.42817947240911
C           95.87805621423892       -0.65820497069752       -3.37332670695308
C           97.13731848747567       -0.56657182083188       -2.72706255440486
N           96.89273405571056       -0.31900381617111       -1.40736972102121
C           98.40262440886474       -0.70511327949865       -3.32748528047699
C           98.40986429876591       -0.98338727104971       -4.71268656915063
C           98.41097383583372       -1.23383862024192       -5.90008816100749
C           98.41872936369792       -1.53244664867909       -7.28166017142740
C           99.61842350016417       -1.73506468863315       -7.97368095869188
C           99.57109326566248       -2.03032190481014       -9.32440961251075
N           98.43380804428143       -2.13221637488298      -10.00746416734363
C           97.28916295989090       -1.94016034311746       -9.35702454305546
C           97.22694525461954       -1.64106228713647       -8.00772400606280
C           99.64011250970731       -0.59473217505311       -2.67516045488068
C          100.91244696671595       -0.73035987882921       -3.35690201493758
C          101.86680269256873       -0.55663309875185       -2.41838687027455
N           99.83283404176451       -0.34806858072263       -1.35616690092787
C          101.17111442205089       -0.32008092873722       -1.16868521049375
C          101.83630116466951       -0.10051136245703        0.05249712148439
C          101.21091292865896        0.11893837092354        1.29622537938785
C          101.85310893554143        0.33180596026126        2.54226476684299
C          100.88046369019227        0.49448195876535        3.49282735835806
C           99.62108003081839        0.38599080952149        2.84938042236857
N           99.86684537120711        0.15989111753174        1.52552396645540
C           98.35549714883066        0.49097818055650        3.45510304228473
C           98.34767098794607        0.72332926870885        4.84855914546396
C           98.35243754968953        0.92019071353266        6.04606327127428
C           98.34789520830155        1.15042471444608        7.44064694240586
C           97.14897668860223        1.24662605341561        8.15685607036460
C           97.19973142940356        1.47160175916018        9.52095242857369
N           98.33961733542992        1.60312855943815       10.19475779175408
C           99.48359982213543        1.51337984099085        9.52111642903735
C           99.54248087678050        1.28998924691505        8.15708464144129
C           97.11755641885252        0.38853435378755        2.80033370151257
C           95.84487703987550        0.51329320966325        3.48408305643001
C           94.89072519924994        0.36760829166368        2.54075928092512
C           95.58631255936773        0.15376433927469        1.28692251944868
N           96.92607956719051        0.17111304583813        1.47740995161126
H           93.83799798228300       -0.46947414094843       -2.57427305442598
H           95.74152151166136       -0.84777503198595       -4.42577542549587
H           97.60637216629306       -0.20648872073953       -0.69504150892783
H          100.56706708179105       -1.66208842155779       -7.45588200631048
H          100.48636305520706       -2.19339414742464       -9.88597104213985
H           96.38017400302320       -2.03077909922681       -9.94459881518025
H           96.27256662705831       -1.49301487559953       -7.51715582929569
H          101.02999728228014       -0.92864220936114       -4.41027964950957
H          102.93866493742955       -0.58246684063017       -2.53272267910999
H          102.92134411108353        0.35496420688840        2.68535521190590
H          101.01689645461295        0.67408941720648        4.54703697557804
H           99.15333237066687        0.03869167707480        0.81450679361033
H           96.19828829992493        1.14551030493217        7.64747619317771
H           96.28513402381344        1.55011754499344       10.10163021811636
H          100.39473754947505        1.62557146375911       10.10174603075202
H          100.49638628854071        1.22366680193969        7.64782555380604
H           95.72724025574486        0.68944226567524        4.54136792678132
H           93.81884686671759        0.39761862420272        2.65384531082129
C          108.43912890365846       -0.09918189390429        0.03490445884642
C          109.06569494818552       -0.34693127143850       -1.20323641364954
C          108.42456553251934       -0.60228677366848       -2.44154025222042
C          109.39815771230691       -0.79104013996312       -3.38670377759953
C          110.65653021733266       -0.65449542794066       -2.74752875164158
N          110.40994675116541       -0.38723065453511       -1.43162456338225
C          111.92331043253937       -0.76993624995452       -3.34998312979616
C          111.93401512601449       -1.05842620290682       -4.73302855762543
C          111.93852395855365       -1.31066779097854       -5.92007652960938
C          111.95256323048021       -1.60848852619931       -7.30179111544348
C          113.15620815104936       -1.79664498462044       -7.99108694043231
C          113.11564970637581       -2.08906657132863       -9.34263309982065
N          111.98131067979571       -2.20115084442952      -10.02902987815244
C          110.83297319781926       -2.02306740412826       -9.38121620101406
C          110.76395180517704       -1.72819925050662       -8.03128658992566
C          113.15966490046173       -0.62616929094059       -2.70192760087824
C          114.43307119306121       -0.74893222894732       -3.38393256418121
C          115.38578858215703       -0.55057216598472       -2.44858579579123
N          113.35008571016124       -0.35997362966497       -1.38631288204695
C          114.68807322978316       -0.30943207670847       -1.20101763686684
C          115.35162923801195       -0.06515180803640        0.01634036276618
C          114.72513813777981        0.17017436125538        1.25698841033397
C          115.36638667508524        0.41235113690191        2.49788512601417
C          114.39291516748406        0.58645837460702        3.44595488370531
C          113.13448789166097        0.45566832704827        2.80567597166936
N          113.38097742326050        0.20503380415551        1.48644557138778
C          111.86780900657536        0.56469612936642        3.40937036692662
C          111.85742741757052        0.82523994756698        4.79793196334182
C          111.85200558669496        1.04558739815320        5.99130356437730
C          111.83940274878225        1.30185323304072        7.38133491084499
C          110.63597438578154        1.41186807639441        8.08795333410257
C          110.67804597973961        1.66143116235423        9.44805118669126
N          111.81367681085074        1.80397761153379       10.12672131610047
C          112.96188765628762        1.70067457756605        9.46231449012064
C          113.02942668592351        1.45277239035237        8.10290567073720
C          110.63128980744389        0.43761181747693        2.75795421811541
C          109.35787712741177        0.56988165015337        3.43809204213024
C          108.40504289596976        0.38763315841553        2.49957739704285
C          109.10267782974877        0.14364488632967        1.25253312096344
N          110.44082999608318        0.18116164193372        1.44047468460678
H          107.35647805220681       -0.63636141484283       -2.58346499679508
H          109.26266438057588       -1.00552323000125       -4.43449805487492
H          111.12318800959987       -0.24079905702408       -0.72507373820634
H          114.10263383261626       -1.71467098647576       -7.47062104575116
H          114.03402155728504       -2.24101477088110       -9.90214045051464
H          109.92660419701397       -2.12165226389102       -9.97151043008453
H          109.80676176237478       -1.59125587620951       -7.54303928014123
H          114.55258836451736       -0.95765971688774       -4.43505918210758
H          116.45780332552654       -0.56145827689873       -2.56397151158850
H          116.43446911984779        0.44694330527854        2.63964157419375
H          114.52853939529059        0.78824160907513        4.49624428748966
H          112.66770773975161        0.06367483659961        0.77889783030960
H          109.68849449165265        1.30234229890659        7.57433069318965
H          109.75976614569821        1.75153244442910       10.02119375335194
H          113.86934369307338        1.82229353942639       10.04675526783203
H          113.98656200601386        1.37596861251922        7.60127477199398
H          109.23845554695261        0.77532143767059        4.48987443990749
H          107.33299017672759        0.41032885999581        2.61267437599907
C          121.95401918617213       -0.05597194744835        0.02079530736199
C          122.58391502100375       -0.30812885043759       -1.21479762255409
C          121.94601483618563       -0.55787227712472       -2.45592404665237
C          122.92206852935455       -0.75599003006151       -3.39660118255558
C          124.17877419201271       -0.63078363913315       -2.75182486327176
N          123.92870087378311       -0.36029791890480       -1.43719640157042
C          125.44710088972583       -0.75838309841372       -3.34845529436383
C          125.46068506485840       -1.05093000701671       -4.73060727309721
C          125.46701287812604       -1.30816283596913       -5.91659119668982
C          125.48019010796715       -1.61147545773813       -7.29711716041188
C          126.68328961159155       -1.79621649692290       -7.98827558463756
C          126.64125113066294       -2.09452401512201       -9.33852099860108
N          125.50598025180904       -2.21574402371709      -10.02183543468409
C          124.35810272136283       -2.04111618815162       -9.37218050730907
C          124.29055721930787       -1.74074310723817       -8.02341617268258
C          126.68183701141650       -0.62319324322651       -2.69534942923027
C          127.95714265958108       -0.75578388035997       -3.37186699140884
C          128.90734024859546       -0.56264478220993       -2.43284070555348
N          126.86860205603023       -0.35701907215378       -1.37926719427125
C          128.20620991875683       -0.31554401798239       -1.18837590010213
C          128.86628572449811       -0.07554558036342        0.03168384508518
C          128.23630891873447        0.16199078148349        1.27013487460439
C          128.87412885660342        0.39693793602636        2.51417019732600
C          127.89801434051927        0.57675253265491        3.45847720815325
C          126.64137991458010        0.45698397350582        2.81261790182920
N          126.89145523687496        0.20664657413326        1.49404406389644
C          125.37298228457210        0.57551125180189        3.41105538914050
C          125.35842856643960        0.83352934240526        4.80005019390780
C          125.35027435749835        1.05112376025294        5.99390992220343
C          125.33172958360856        1.30287408553170        7.38470553887011
C          124.12496495331891        1.41612288302672        8.08512855822643
C          124.16072800118337        1.66113009591183        9.44622473907030
N          125.29327407854304        1.79646365089861       10.13150518557223
C          126.44460333350207        1.69034864039601        9.47296619097747
C          126.51845401496672        1.44643220223540        8.11315318078300
C          124.13842556767078        0.46025462270537        2.75396888570148
C          122.86312787716446        0.60235425547978        3.42861200251905
C          121.91302566247236        0.42938963493947        2.48560562153665
C          122.61422985141093        0.18122210129553        1.24138168426504
N          123.95169178746694        0.20743180199748        1.43518936774444
H          120.87831449965647       -0.58197537986816       -2.60267640637075
H          122.78925499213810       -0.96946845161571       -4.44493899026850
H          124.64005571989981       -0.22036380594659       -0.72743777437813
H          127.63042990590742       -1.70701868509392       -7.47030753303311
H          127.55915176224030       -2.24381591113464       -9.89944050056127
H          123.45098245275832       -2.14728180806109       -9.95998855013715
H          123.33376177414165       -1.60697118450298       -7.53354285206804
H          128.07951095986482       -0.96655315956531       -4.42225602118136
H          129.97971747891211       -0.58108073811266       -2.54375600995761
H          129.94183245292740        0.42286437180075        2.66058724387275
H          128.03072255331719        0.77547311030147        4.50972367652673
H          126.18007451371979        0.07218292177385        0.78325431414915
H          123.17982215383073        1.31248594331792        7.56600074490768
H          123.23973601369208        1.75333826212816       10.01465792111741
H          127.34938372697007        1.80612807211939       10.06272616206608
H          127.47795799073771        1.36714700945734        7.61646049885683
H          122.74071169870865        0.80728316337104        4.48014878423803
H          120.84068677709548        0.46084193869955        2.59391273663811
C          135.46894665926837       -0.05881211394158        0.05117237869611
C          136.10209626113880       -0.29104964585031       -1.18635421487219
C          135.46807741008860       -0.53565602119335       -2.43067966894311
C          136.44692888073848       -0.70818705990700       -3.37319884514249
C          137.70184094800214       -0.57067326948205       -2.72685845163217
N          137.44750677921127       -0.32077241611756       -1.40894468251450
C          138.97143369898029       -0.66472623415788       -3.32588306373763
C          138.99034941925794       -0.94210168474974       -4.71096679781639
C          139.00155575614238       -1.19344195325027       -5.89817693201162
C          139.02213263572787       -1.49286378649658       -7.27938733182893
C          140.22888482582158       -1.68425317630685       -7.96225673775281
C          140.19452717860810       -1.98089893504128       -9.31305613993071
N          139.06340930047753       -2.09391708436284      -10.00457455645353
C          137.91213463740664       -1.91259577876489       -9.36286917517639
C          137.83689837314674       -1.61363779350947       -8.01420976177344
C          140.20433771774239       -0.51277982390096       -2.67161386971535
C          141.48087501462192       -0.59864142851950       -3.35386195609945
C          142.42874111409196       -0.41147013876215       -2.41153039597250
N          140.38740780230196       -0.27759826160816       -1.35023356289004
C          141.72542233738653       -0.21654618634494       -1.15893121737929
C          142.38144912069959       -0.02132069349333        0.06950991038236
C          141.74971321610340        0.16133866631597        1.31494178301724
C          142.38414202233105        0.35657383274751        2.56801029821015
C          141.40562679363558        0.51017925632540        3.51406333551926
C          140.15037957099673        0.41258123484481        2.86107221707274
N          140.40379769862085        0.19963522593192        1.53692970452975
C          138.88056461464842        0.52345860224604        3.45778779199429
C          138.86128897731047        0.75712681624878        4.85109161914540
C          138.84400532626833        0.95701247828358        6.04793772640005
C          138.81333712649624        1.18827670145005        7.44207355621938
C          137.59992567950377        1.30242396574816        8.13085320252916
C          137.62275118488128        1.52885948097079        9.49541046352206
N          138.74881442102694        1.64537549951695       10.19474300633441
C          139.90634551571929        1.53863357311100        9.54727985030944
C          139.99311632501846        1.31244902095464        8.18514017283655
C          137.64756942750859        0.42474728576297        2.79489182136052
C          136.37069076625866        0.55830037114330        3.46863502496792
C          135.42259774691732        0.39844449844277        2.52137226722411
C          136.12645802800353        0.16732128316618        1.27529328196791
N          137.46352242765201        0.19207968627333        1.47211183157085
H          134.40087470762572       -0.57411749796191       -2.57796479974590
H          136.31750631602350       -0.91114425432632       -4.42403925146629
H          138.15634937271756       -0.17968238716578       -0.69692272176798
H          141.17282364232889       -1.60201460148885       -7.43732659545811
H          141.11546336697765       -2.13567302695210       -9.86755977329083
H          137.00856062812909       -2.01205009280715       -9.95731333702844
H          136.87752053243136       -1.47456935900386       -7.53088167431815
H          141.60534465254349       -0.77663288931961       -4.41003936751954
H          143.50098398467682       -0.40377146526774       -2.52469568969045
H          143.45149533398677        0.37681694572703        2.71788262218799
H          141.53531669367570        0.67754697618897        4.57114125437106
H          139.69462235867562        0.08811340345888        0.81999327017475
H          136.65971890649956        1.21403608860812        7.60004130202229
H          136.69637366158634        1.62112654787308       10.05502843161481
H          140.80553999163152        1.63887581764405       10.14832386314418
H          140.95731168964772        1.23220258618918        7.69779989277464
H          136.24600022540247        0.74859609840861        4.52264923274591
H          134.35003118877864        0.42845209811566        2.62785825072093
