169
 energy: -303.725624477616 gnorm: 0.000545340500 xtb: 6.5.1 (b24c23e)
Ni          24.75130134130024       -0.02388470920893       -0.02119150979898
C           21.35825385116849       -0.04812395505764       -0.03990203362901
C           22.01366228299918       -1.26130820454711       -0.01107642634867
C           21.33771894147134       -2.52249604254160        0.02014013170510
C           22.29375412383211       -3.47226292291107        0.14303820627466
C           23.55449428313115       -2.79023477802993        0.18007253853521
N           23.37288909508586       -1.43437275645315        0.06771312691726
C           24.76944016129110       -3.42438313404809        0.40223881028558
C           24.77989958872777       -4.89539519689094        0.58810967109168
C           25.13775963265406       -5.46707023862114        1.80796319092013
C           25.13496128616250       -6.84753058497980        1.93274573383600
N           24.80915428384218       -7.66398342334426        0.93594791606509
C           24.46815102418594       -7.12627539675530       -0.23060955682716
C           24.43588312393744       -5.75813139413718       -0.45114209174026
C           25.97646274727648       -2.74140611952946        0.45858274157499
C           27.24103184038652       -3.38042996087210        0.66481996684708
C           28.18852146808439       -2.42003906503188        0.54743720054866
N           26.14883656638618       -1.39511930470839        0.22857857183984
C           27.50235659475438       -1.20000948412175        0.26226070101049
C           28.16321942972279       -0.00361275320537       -0.02511492523779
C           27.48635754611632        1.18541622989835       -0.30528789239624
C           28.15407670861349        2.40852335719919       -0.61921964900333
C           27.19496570652443        3.35931611907356       -0.72208055929476
C           25.94354298876962        2.71368200039050       -0.46361203148688
N           26.13191315142317        1.36807536663241       -0.24429744233001
C           24.72717518399915        3.38144965729083       -0.41479451219976
C           24.72244672195641        4.85423281584553       -0.57419996814610
C           24.06319665039508        5.46694973389565       -1.63898993268859
C           24.09305137972894        6.84847388248792       -1.74664829383406
N           24.72093781943699        7.62970566486649       -0.87380502226053
C           25.34961869521111        7.05358527208908        0.14571123454229
C           25.38085366154770        5.68104299295062        0.33528941462390
C           23.51751480254870        2.72563233537217       -0.22708212438067
C           22.25048589713774        3.39193170348197       -0.14608272119408
C           21.30600675197275        2.42726808128266       -0.05108501130937
C           21.99705695413202        1.17406475762816       -0.05919892132829
N           23.35384986408525        1.36597818573727       -0.13669277261382
H           20.27451906101926       -0.05551989289796       -0.04002466021904
H           20.26748321942113       -2.64330994868696       -0.03336520504197
H           22.16960143685883       -4.54030957333162        0.21782872348958
H           25.40195260092339       -4.83926014885582        2.65053387439445
H           25.40681907782417       -7.31693435318562        2.87365346693677
H           24.20941836795424       -7.81947353316215       -1.02566110258200
H           24.16162609817545       -5.36406542374476       -1.42242562374496
H           27.37699989418993       -4.43185252875126        0.85800904140114
H           29.25909219818808       -2.51558504906721        0.63022227507422
H           29.22041688766857        2.51029400277069       -0.74043871852713
H           27.31318562662369        4.40440324927043       -0.95701206201283
H           23.54840501753820        4.86898518432728       -2.38151279432106
H           23.59129802157955        7.34850862370759       -2.56990802752384
H           25.85134992645121        7.71836339721537        0.84278606519846
H           25.89792238528844        5.25564019042666        1.18712825884100
H           22.11512159156419        4.46115564263718       -0.15876892387196
H           20.23536281222712        2.53402926044622        0.02087576232385
Ni          51.61014232188525        0.04539836652508       -0.01602595094328
C           55.00805225753787        0.06077030721966       -0.02291759002321
C           54.35624676958196        1.24307836980741       -0.30329305670093
C           55.03919948770276        2.47044810379157       -0.57788754637370
C           54.08505466905314        3.41060793976329       -0.76881653517398
C           52.81951470427071        2.75370452356321       -0.61868761610800
N           52.99601189204638        1.42308989654475       -0.33167246618983
C           51.59822559025611        3.40721792836271       -0.70718217052748
C           51.59040727755693        4.86217302776337       -0.99351728005254
C           51.13906393799017        5.78004171707241       -0.04653371002368
C           51.15112179018233        7.13082810111834       -0.35689193041788
N           51.57016778726656        7.60096034671691       -1.52722406984290
C           51.99930897466664        6.73162585544382       -2.43626997619982
C           52.03175786873958        5.36329771407519       -2.21687949996035
C           50.38239270429688        2.76094814512907       -0.53558575909241
C           49.11555225883486        3.41603080135289       -0.65984447574067
C           48.16604410386182        2.46975930403316       -0.46849916457995
N           50.20968389372094        1.41990035395502       -0.27656313484131
C           48.85446190019798        1.24021532361097       -0.23473816138525
C           48.19278877112044        0.03008173097458       -0.01436791710571
C           48.86680426647903       -1.17321558312171        0.20584547322040
C           48.19032347402941       -2.41548218839177        0.40398124589210
C           49.14832092519686       -3.35283989439534        0.59669938715438
C           50.40815890693880       -2.67674015422801        0.52488148956538
N           50.22346008284607       -1.33708081498812        0.26639278578165
C           51.63029916906527       -3.31441091881445        0.68589124713703
C           51.63683976414914       -4.76580987382814        0.98617165829125
C           52.18860992858532       -5.68523219203181        0.09515842656626
C           52.16634120173856       -7.03331751654787        0.41609631130124
N           51.64419111280685       -7.50026186895128        1.54565187721845
C           51.11905928908914       -6.62983050140386        2.40169188640327
C           51.08969773351664       -5.26393665744683        2.16761514156596
C           52.84595297669294       -2.65317644982966        0.57446988012386
C           54.11701157077660       -3.28666289031695        0.77179883162527
C           55.06203779226922       -2.33970542756864        0.56931430775686
C           54.36778773506050       -1.12743703204867        0.25872842310828
N           53.00943452298061       -1.32350414851839        0.27639652338948
H           56.09179588847795        0.06706564562957       -0.01849414995025
H           56.11166694791606        2.57904879403090       -0.60772436698826
H           54.21210456585143        4.45927178855806       -0.98299712371676
H           50.79576608873444        5.44155559828455        0.92374455962047
H           50.80888941805201        7.86596471400855        0.36558547831736
H           52.33228047443860        7.14668410179821       -3.38304890688487
H           52.38143819321732        4.69028973512344       -2.99059741425462
H           48.98120868020924        4.46298610433544       -0.87702598601688
H           47.09358225489455        2.57722608935379       -0.48709148813580
H           47.11953028116688       -2.53880122080393        0.38871851818030
H           49.02377472036404       -4.41008193233116        0.76395075188976
H           52.61507357304210       -5.35027896520298       -0.84283386342390
H           52.58513323038077       -7.76937426666369       -0.26388875784728
H           50.70260341765484       -7.04177428904763        3.31626737060785
H           50.65963383929895       -4.59016045486900        2.89904011503486
H           54.25407604548393       -4.32183655522515        1.03880006591486
H           56.13498124497458       -2.43195104127712        0.62518076289775
C           30.79097119903143        0.01166590355052       -0.02539031650738
C           29.57010564249742        0.00425984821192       -0.02912292372821
C           32.14213369261027        0.01698692905255       -0.02293944320003
C           33.36319667254654        0.01939461080476       -0.01841583579545
C           44.21507160642558        0.00564309692874       -0.00762878318226
C           42.99370430106823       -0.00255647945670       -0.00645465600666
C           45.56550683402916        0.01317062087871       -0.00951734255566
C           46.78662616095971        0.02184670314558       -0.01546498867478
Ni          38.17890075646616        0.00033023039903       -0.02112558023709
C           34.76924139737078        0.01597073618776       -0.01815791010422
C           35.43943690529233       -0.74554535536150        0.94302494977156
C           34.77256675930186       -1.48556875758953        1.96619822859599
C           35.72544210683735       -2.19918154566638        2.61388679926169
C           36.97074427125315       -1.90043054399358        1.97495971219836
N           36.78879819927029       -0.96648155555938        0.98071170172267
C           38.17049282975999       -2.53441755472532        2.27215431531438
C           38.16615804180963       -3.62981392897693        3.26799927051465
C           37.39957156685275       -4.77904109517414        3.07754953111020
C           37.42801803346022       -5.77706309471849        4.03874661145791
N           38.15311401513275       -5.69244838164519        5.14943596395661
C           38.88501147136065       -4.59946690763007        5.33980627097383
C           38.92654946226683       -3.55108341443277        4.43427149082600
C           39.37360108108053       -2.18080645880772        1.67472945145490
C           40.61580985221803       -2.85037077504898        1.91273508256587
C           41.57360467009347       -2.13691944364439        1.27188944796055
N           39.56240235857489       -1.09817696620902        0.84630443437015
C           40.91273578225483       -1.04231434874535        0.63617303592139
C           41.58862175922976       -0.00363353175522       -0.01052142165150
C           40.91839232801067        1.03276195259083       -0.66683357676328
C           41.58619555549630        2.11837705426430       -1.31089212705741
C           40.63511545154355        2.82356571650466       -1.97041558294033
C           39.38956661942068        2.16087744521669       -1.73106358718764
N           39.56974365953791        1.08866969298392       -0.88756394361651
C           38.19027298491891        2.51640933086306       -2.33473738209244
C           38.20015731074008        3.59589554813178       -3.34808472168626
C           38.95207661702355        3.48076089149207       -4.51680291848648
C           38.92749030569619        4.51380508435615       -5.44030613916416
N           38.22048728212122        5.62547089115385       -5.26452433718212
C           37.50422907275974        5.74486715760088       -4.15135140505843
C           37.45957708605519        4.76418574669396       -3.17292785936795
C           36.98406477633227        1.90050665130528       -2.02738004985676
C           35.73944682499958        2.21185621676375       -2.66157428795746
C           34.78082452690566        1.51469626268103       -2.00461690284787
C           35.44361533327377        0.77070056054529       -0.98159465351563
N           36.79515185795809        0.97595163906031       -1.02559030482975
H           33.71101845127200       -1.45446617613470        2.15143193775791
H           35.60569067187927       -2.86719867616435        3.45105917524449
H           36.80192529047132       -4.89624171992247        2.18142838632281
H           36.84246467635728       -6.68280009157632        3.91103798321403
H           39.46472362679427       -4.55919268215736        6.25734776087546
H           39.52873176332491       -2.67350724366380        4.63724779095254
H           40.73021431096133       -3.75056337915825        2.49418228493389
H           42.63496962245326       -2.32060161903546        1.22730664238762
H           42.64749468976743        2.30082516198918       -1.26078305774946
H           40.75569392914158        3.71432785380060       -2.56495216902774
H           39.53486053518341        2.58734315237703       -4.70686208399764
H           39.50025436340053        4.44497929526752       -6.36048334614468
H           36.94011510972426        6.66567394678813       -4.03557884114592
H           36.87012794835293        4.90978718279564       -2.27556782680849
H           35.62406614479313        2.87766340172657       -3.50111845319422
H           33.71793319365450        1.49661479051498       -2.18378605879702
