207
 energy: -320.605721508221 gnorm: 0.000525246376 xtb: 6.5.1 (b24c23e)
Zn          33.49419054124357        0.05134682836904       -0.10242087064281
C           30.08789534192875        0.16458535687215       -0.29197187684985
C           30.72792939428242        1.34679342171226        0.06068860346319
C           30.06589414549592        2.58211470843265        0.37500906483105
C           31.03141274129342        3.48042196843201        0.69296717337399
C           32.29670323702812        2.80643752465893        0.56867039123777
N           32.07681339604861        1.51490906668957        0.18719466319441
C           33.54803301967704        3.37251353025824        0.83633514520464
C           34.77832023055271        2.71216143208906        0.75214109273945
C           36.05832035322634        3.31282003680897        1.00447846251439
C           36.99737462587542        2.35651588662800        0.78967772356145
N           34.96570839088521        1.40664355289922        0.38288440262160
C           36.30511220878181        1.16602286751306        0.39296834511307
C           36.92952527628023       -0.05198769806243        0.05635418338329
C           36.26553398513111       -1.23729708118704       -0.31786069767924
C           36.91911430080202       -2.45790392877530       -0.68753874599656
C           35.94709881730425       -3.35953637815389       -0.97913286443127
C           34.68610190330430       -2.69806526136094       -0.78992713739468
C           33.43139934757468       -3.27951865813294       -1.00547765569286
C           33.40770701451137       -4.71583814144854       -1.38185572458405
C           32.88220063160261       -5.11738310375124       -2.60813953263723
C           32.86013326045916       -6.46336368261125       -2.96231963667255
C           32.27710368237760       -6.88264892860669       -4.28511981250888
C           33.36498218488703       -7.40951061704277       -2.07743891783021
C           33.89244796919897       -7.02446185764433       -0.84700252238484
C           34.45008756934031       -8.06014151902979        0.09202278870520
C           33.91293656198014       -5.67760497895031       -0.50620578559725
C           32.19882789383810       -2.62497406176337       -0.89787157003692
C           30.90859970521369       -3.23364768741831       -1.08723570265351
C           29.97680392894084       -2.26664672856747       -0.89492407872739
C           30.68433994919019       -1.05860778843691       -0.57447990913476
N           32.02645773012778       -1.30924034883915       -0.57948906630518
N           34.91728897445490       -1.40663201553629       -0.39756596398728
C           33.57098480015900        4.80023864431573        1.24761363240293
C           33.14961031430897        5.79258180357357        0.36371117537772
C           33.16957926482439        7.13063711222923        0.74187373005947
C           32.74020547695874        8.20107227403935       -0.22515557410488
C           33.61128374029252        7.47273360725957        2.01669891448996
C           34.03286891887291        6.49360026173162        2.91104740241405
C           34.48377043783017        6.87140372331678        4.29638378060634
C           34.01231018880689        5.15889757544071        2.52013718355964
H           29.00372751500543        0.19683629399601       -0.33983551416892
H           28.99721425093477        2.72943820302880        0.35871349808166
H           30.90356963189376        4.50741680191064        0.99601676860415
H           36.21737939927259        4.33740810353022        1.29991698916053
H           38.06648154946206        2.44460198750696        0.89427413759807
H           37.98694960815251       -2.59973223986107       -0.72878837777514
H           36.07189051650026       -4.37808838513730       -1.30985996782530
H           32.50369221110152       -4.37026566082669       -3.29735196734214
H           32.58850050306389       -7.89389669247169       -4.54674151155655
H           31.18614432454199       -6.86184190324325       -4.23441513363905
H           32.59018176016077       -6.20124734298798       -5.07708731311972
H           33.34944987013017       -8.46053742610254       -2.34732775171857
H           34.56346436548992       -7.65481001677554        1.09744035339724
H           33.79699847164197       -8.93266477400642        0.13525203995752
H           35.43094715421258       -8.39012484050514       -0.25753127748186
H           34.30923820856503       -5.36623019097940        0.45419054398638
H           30.74116286607710       -4.27187798086148       -1.32562819807820
H           28.90306517170856       -2.35383653522903       -0.95443044693854
H           32.81878158596363        5.51438090400001       -0.63105104551177
H           32.26550159858108        9.03032087053323        0.30011793038996
H           32.04179364713639        7.80298848879543       -0.96144898998246
H           33.61074110685425        8.59122034855774       -0.75757200685221
H           33.62694941984431        8.51562592120246        2.31652295985577
H           33.62809529832339        6.87943384158587        4.97560305460772
H           34.93033182507138        7.86598556797390        4.30205234666509
H           35.21187709071360        6.15471767615459        4.67686296646367
H           34.32724955496540        4.38574838772751        3.21252653672029
Zn          55.31922594926024        0.02810021770381       -0.08166702550665
C           58.72142501645111        0.17668712005572       -0.23874749093971
C           58.08404767000508       -0.51419706127243       -1.26256354610585
C           58.74913642233419       -1.18246650914150       -2.34623713763714
C           57.78596464282460       -1.75402752055377       -3.11158242346399
C           56.51856128209859       -1.43626200937857       -2.50826899903186
N           56.73559614003978       -0.68708685142345       -1.38844270700955
C           55.26892087404535       -1.86120176152168       -2.97350699596371
C           54.03790636733881       -1.59317001355401       -2.36447685475645
C           52.75527078610671       -2.00151871550228       -2.86865806752302
C           51.81688916142579       -1.51793449560960       -2.01560686398504
N           53.85366692028143       -0.86562478073236       -1.22019042762744
C           52.51388618613171       -0.80158734139852       -0.98709545446015
C           51.89308261710047       -0.10071997461997        0.06166673021255
C           52.54705528001191        0.63749546679422        1.06344739819831
C           51.88540972133163        1.35428638057491        2.11450380263832
C           52.85353090560809        1.90648126386602        2.88932833965137
C           54.11866739285036        1.52919625406981        2.32093015073428
C           55.37200006467299        1.90178578471142        2.82051630271578
C           55.39193055809771        2.68148870915136        4.08413371403596
C           55.92556560413971        3.96808178094747        4.11578614973850
C           55.94614878346480        4.69681455289451        5.30154946143947
C           56.53997699086715        6.07968849628472        5.32387506798457
C           55.43106929307175        4.12760670696509        6.46084264421219
C           54.89452357172506        2.84222734660535        6.44599889135094
C           54.32564256818927        2.24740602626194        7.70613236489147
C           54.87598374028688        2.12588118390948        5.25556641397339
C           56.60590091019703        1.59667743175436        2.23431887739097
C           57.89561382928853        1.95547307411245        2.76291165945136
C           58.82899944748553        1.48018896032001        1.90092376701256
C           58.12336299279033        0.81375890894467        0.84215442461634
N           56.78076289794137        0.89695371436325        1.07561872086755
N           53.89479092481719        0.76854903155660        1.20590066668978
C           55.24598684065650       -2.65861614704191       -4.22663404489934
C           55.68195495718390       -2.09362778561819       -5.42452927785645
C           55.65497770789796       -2.82912431505067       -6.60428502718433
C           56.09889271921205       -2.20575230336049       -7.90032891305778
C           55.19081768917007       -4.14112175500007       -6.57965878585542
C           54.75518651210603       -4.72022582363066       -5.39171520035076
C           54.27787583596360       -6.14747979658033       -5.37170768466035
C           54.78400956724715       -3.97372660567350       -4.21846582980181
H           59.80571938905781        0.21249186498159       -0.28159082522082
H           59.81821966010110       -1.21016220768247       -2.48894108349619
H           57.91675340258434       -2.35036166027514       -4.00050975232939
H           52.59466651058177       -2.57348775504885       -3.76839702908039
H           50.74529809673729       -1.62464053834062       -2.07552590976188
H           50.81594856400096        1.42373965712404        2.23594746324039
H           52.72474663983438        2.52676339343446        3.76179061419671
H           56.31175964425665        4.40868115963139        3.20302016724765
H           56.21056025338193        6.63236832974827        6.20370349575119
H           57.63022222023502        6.01575959469509        5.34759081338388
H           56.25470965154940        6.63612659963147        4.43033317004774
H           55.44596990456210        4.69024196121332        7.38871977438851
H           54.21273507898501        1.16742975931294        7.61166306584787
H           54.97114504439174        2.46115159054625        8.55893642414314
H           53.34298453301169        2.67839007114202        7.91061810615447
H           54.47312163585015        1.11908901390649        5.23378193203604
H           58.06153017828979        2.49360264157414        3.68252958637493
H           59.90269139441342        1.56076324085925        1.96991781347559
H           56.02829528022515       -1.06581625710364       -5.43359046162506
H           56.57553869117245       -2.94620716296692       -8.54336221475593
H           56.79981241514683       -1.39048912170822       -7.72034487673438
H           55.23492906225209       -1.80107229462202       -8.43260704792845
H           55.16793635806596       -4.71884710015680       -7.49806483877457
H           55.12285288825402       -6.81926617468248       -5.20368632936569
H           53.81567552837397       -6.41559983880672       -6.32208016914933
H           53.55526878015668       -6.30422081220397       -4.57058808201560
H           54.45854220785423       -4.41849793719690       -3.28433221136903
C           38.33943900230560       -0.08044058297206        0.08287607131554
C           39.55681238307964       -0.08854053267443        0.08721114314017
C           49.26392031102179       -0.13585637145312        0.12124489863500
C           50.47876716733261       -0.12304507462939        0.09911283179817
Zn          44.41046722870786       -0.11506168184367        0.11316574911575
C           40.96692619648501       -0.09788493079545        0.09586187307403
C           41.62004144667291        1.14236865861193       -0.05237200428497
C           40.95462774506720        2.40111252279997       -0.21370584437658
C           41.91744482833338        3.35294679346950       -0.31237490431670
C           43.18416492965527        2.68260081516188       -0.22404863867973
N           42.96645778132036        1.33985925383655       -0.06501484212707
C           44.43243639345373        3.31265132483321       -0.25847882298819
C           45.67437247092705        2.68006645194146       -0.13980031518644
C           46.95080587096317        3.33608622945210       -0.20568118121200
C           47.90144125855662        2.37428443055324       -0.08774200187050
N           45.87243285285561        1.33447945143780        0.01004721457757
C           47.21649507669442        1.12104522640815        0.03919128146377
C           47.84936483593050       -0.13122484392890        0.12955187610743
C           47.20303922234369       -1.37658998903584        0.21534422987810
C           47.87436981851376       -2.63709840252893        0.34008028582007
C           46.91317566601644       -3.59054139089339        0.44024824843189
C           45.64368262543022       -2.92185122635540        0.36603351213644
C           44.39429490843264       -3.54448834897313        0.46112973979909
C           44.38869387718842       -5.02148374016623        0.62341510820400
C           43.87840779281201       -5.59939144815503        1.78403958605239
C           43.87514691099256       -6.98182136109145        1.94349780748233
C           43.34176279395257       -7.59364542265627        3.21099154175644
C           44.38662394906073       -7.78599645941026        0.93063200629642
C           44.89748630404191       -7.22360855438559       -0.23647560628328
C           45.46037589571444       -8.10713737265983       -1.31709514040436
C           44.89755849860735       -5.84151685181406       -0.38348791446176
C           43.15200361683367       -2.90281440747464        0.42053599749075
C           41.87749802616026       -3.56112949373624        0.48655929017377
C           40.92522643102718       -2.59871166478096        0.38645170973876
C           41.60524025017208       -1.34538746965332        0.24560948446788
N           42.94942461904731       -1.55636355178555        0.27275476791491
N           45.85659196278007       -1.57694470446618        0.23128941455951
C           44.43980400300436        4.78604234289099       -0.45191552609717
C           44.93135615535546        5.62813493525835        0.54391289354610
C           44.93645855630529        7.00743670330303        0.36368057300172
C           45.48061303031199        7.91082954983143        1.43747943810470
C           44.45168598280812        7.54202096067679       -0.82610519916798
C           43.95888892717586        6.71411075468860       -1.83051391513950
C           43.45607967384630        7.30129018850801       -3.12186889288187
C           43.95417930139900        5.33711602885866       -1.63697299702298
H           39.88587222722339        2.53572591853811       -0.24887482215652
H           41.78310584053188        4.41661199475409       -0.42598900975275
H           47.09888319078974        4.39594225138048       -0.33681145618009
H           48.97328622078647        2.49378216278846       -0.09590522305349
H           48.94494182848713       -2.76680587399752        0.35859975953937
H           47.05028333683888       -4.65272054383034        0.56434375555658
H           43.49399321112716       -4.96210364533246        2.57301087544461
H           43.03996007100171       -8.62828347570806        3.04754076649026
H           44.11425297440849       -7.58123340964094        3.98333161262903
H           42.48495782020738       -7.03004252279431        3.58155167058316
H           44.38553614209656       -8.86477742294907        1.04886927390552
H           45.52632127087568       -7.57158033356878       -2.26412291659816
H           44.83871502512547       -8.99257752274528       -1.45485459941167
H           46.46375444889120       -8.43891753767757       -1.04065618283767
H           45.27955917418095       -5.39198383935044       -1.29360439454830
H           41.73071442737982       -4.62444452452899        0.58743340396433
H           39.85453743822224       -2.72260739615211        0.40485919278517
H           45.29456537607592        5.20089472551290        1.47228418020721
H           44.98483243136161        8.88160834331681        1.41672326636276
H           46.54962264109482        8.07194773036454        1.27995237633367
H           45.34659325662474        7.46640552986562        2.42391906992835
H           44.45446853854801        8.61750403828516       -0.97127002792827
H           43.01343940276498        8.28368452680130       -2.95536149552353
H           42.71096378676516        6.65096365211629       -3.58050584818020
H           44.28477930399310        7.41723873903660       -3.82425685523335
H           43.58224172147165        4.68078670183303       -2.41624442118409
