252
 energy: -484.397343530214 gnorm: 0.000685106632 xtb: 6.5.1 (b24c23e)
Cu          57.78273251501408       -0.04333700748460        0.00197583992860
C           54.37838560672252       -0.10900092203464        0.02476046691924
C           55.01143289448914       -0.14775707564880        1.25767998798640
C           54.33375668581158       -0.17458048469124        2.52254536980007
C           55.29031840001679       -0.18754157302144        3.48305188337126
C           56.56281983951874       -0.17953092310711        2.81274741484995
N           56.36193609972081       -0.14709493039351        1.46279434805990
C           57.80614112330801       -0.17361436276097        3.44848692078227
C           59.04052705842556       -0.12671474102298        2.79644747200683
C           60.31804062728493       -0.17781031665852        3.45096818866509
C           61.26483126772762       -0.12834078030625        2.48079278977467
N           59.22874095558465       -0.05993776948826        1.44289471083199
C           60.57459106389385       -0.05368580062140        1.22717393031958
C           61.20709654628450        0.00691271167308       -0.02153644184787
C           60.55639704856618        0.05629954871710       -1.26126492418902
C           61.22778308678845        0.09021715142693       -2.52673319720306
C           60.26654176152412        0.11946542599800       -3.48356584501945
C           58.99892971348353        0.11111395036066       -2.80817449353250
C           57.75477767604634        0.11526491740144       -3.44328358152570
C           57.74378135022031        0.19217480883271       -4.92456326764488
C           57.20675379120250       -0.85010704027177       -5.68458950468778
C           57.19851770443400       -0.77479962387238       -7.06523995244164
C           57.72246689966479        0.34620454753307       -7.71199609856609
C           57.68755214519538        0.38265336055769       -9.19334900533134
O           58.21531092619146        1.50031781294983       -9.71576856316946
O           57.23485842924340       -0.49366916761440       -9.88528497680081
C           58.25824479923808        1.39054477017692       -6.95763863410622
C           58.26985982619633        1.31053672432896       -5.57613072855799
C           56.52113390545784        0.05419888140919       -2.79174959424379
C           55.23869604754742        0.09890100776048       -3.44136170119276
C           54.29663107287162        0.03112509483933       -2.46889048715044
C           54.99317885783258       -0.04499240824008       -1.21635877107422
N           56.34044745172640       -0.02493404647663       -1.44079379312223
N           59.20739546999694        0.06416959083124       -1.45685221375984
C           57.81832021950941       -0.21866258170948        4.93104416088395
C           57.29154737687153       -1.31935422518333        5.61166421982889
C           57.30727628452475       -1.35811336917212        6.99379098611606
C           57.84512613196624       -0.29485205100764        7.72150736022428
C           57.83861728338509       -0.38183465850739        9.20125390327233
O           58.37493014283814        0.69009196550088        9.80445150198375
O           57.39873723824999       -1.31332353183199        9.82626978550468
C           58.36973370534929        0.80792108250850        7.04668352899193
C           58.35762725515844        0.84197711383637        5.66331029290167
H           53.29334617693383       -0.11691230698495        0.03240467492607
H           53.26214201094391       -0.17494470958883        2.64494421414389
H           55.15416736486900       -0.19005620558339        4.55249616880205
H           60.46666761554195       -0.25646660851437        4.51571962333935
H           62.33718765860863       -0.14625318170141        2.59231594739569
H           62.29840449921174        0.08496898947543       -2.65522902400599
H           60.39939497797892        0.13106932423173       -4.55326146885017
H           56.81045987081932       -1.72671721001009       -5.18482583622350
H           56.78798800927159       -1.58229719910731       -7.66152621261662
H           58.15359952962172        1.44589812276764      -10.68324007481934
H           58.66306129173191        2.26391864124518       -7.45513437977888
H           58.67530364524224        2.12726155730256       -4.98951566561242
H           55.08628781655293        0.18409077390963       -4.50522361544356
H           53.22329487046866        0.03871816207107       -2.57488270971361
H           56.88487504763348       -2.15149038809456        5.04826536724722
H           56.90563252478756       -2.21188320338503        7.52847301848505
H           58.33281015450741        0.55518933395784       10.76508153328102
H           58.78502028025765        1.63693795070788        7.60743630733921
H           58.75503935855473        1.70375406115683        5.13894326174883
Cu          90.50863468158843       -0.02294177836274       -0.06388635888745
C           93.91288293732536       -0.09816760993106       -0.10077118746745
C           93.27787613842958        0.01297741504389       -1.32826575219265
C           93.95347033638552        0.13046119249314       -2.58907761991596
C           92.99549908582375        0.24419248886272       -3.54152660436341
C           91.72412267194132        0.18811368951135       -2.87138705680010
N           91.92715398624109        0.05260504427069       -1.52822788846876
C           90.48066698733344        0.29618903083784       -3.49754937140020
C           89.24760095280571        0.28488226528574       -2.84153436516927
C           87.96925340796143        0.34853064863958       -3.49311501893194
C           87.02375064533213        0.27879104560929       -2.52279856531578
N           89.06093785432766        0.16874860953752       -1.49099745636051
C           87.71546936228332        0.16362250700749       -1.27316604510573
C           87.08409124535572        0.03215014668061       -0.02902964272641
C           87.73654204726445       -0.11261155608076        1.20255629480249
C           87.06721100892867       -0.26658287541525        2.46019828309102
C           88.02986671394281       -0.35915542043029        3.41160791029095
C           89.29610497961001       -0.25697202316501        2.74144546825665
C           90.54108621775951       -0.31629489294238        3.37206878896660
C           90.55319882488489       -0.42320878280732        4.85147495198701
C           91.10667142958205       -1.54266875156169        5.47815273694378
C           91.11740678274491       -1.63603883860794        6.85770527253904
C           90.57968807896353       -0.60971265187882        7.63675632442480
C           90.61875840443972       -0.75350016575962        9.11162157905628
O           90.07943681931508        0.28562503294489        9.76695158439552
O           91.08481558626356       -1.70172041728467        9.69066597646710
C           90.02681663969906        0.51079391755963        7.01591284505888
C           90.01245547075951        0.59945358598415        5.63495024208230
C           91.77423861954911       -0.27970528050771        2.71779157794283
C           93.05752039616911       -0.30695903602205        3.36666099267503
C           93.99826121997549       -0.25316186985161        2.39201373106611
C           93.29996590814922       -0.18019370513352        1.14025866079658
N           91.95304414220350       -0.19115766016814        1.36713073203010
N           89.08564994520771       -0.12020318547748        1.39653425884456
C           90.46790772991507        0.42854839290302       -4.97503782100794
C           90.96573245921753       -0.59954782708213       -5.77980273544118
C           90.94894961405605       -0.47837514125918       -7.15703533971542
C           90.43936312301035        0.67556645635407       -7.75551866548482
C           90.44330197529679        0.75904643554238       -9.23536711958887
O           89.93826659470680        1.90799065008271       -9.71001139856087
O           90.85585678930001       -0.10684331342115       -9.96471750437289
C           89.94469356034061        1.70671717878809       -6.95627208512121
C           89.95739305920431        1.58061101831114       -5.57812240178477
H           94.99786714727411       -0.10965879956955       -0.11133766776678
H           95.02484495729490        0.13216895722258       -2.71365093653377
H           93.13005883967331        0.36868167398993       -4.60392578615967
H           87.81880080740177        0.42209263274793       -4.55798432083570
H           85.95119523912817        0.29450575004552       -2.63292456954973
H           85.99698606620321       -0.30244557989466        2.58703307716475
H           87.89935178205576       -0.49837844147772        4.47255811592740
H           91.51395222595715       -2.34604225518739        4.87486625035838
H           91.54080916746520       -2.50424033998567        7.35073288752257
H           90.14446184943485        0.11487178192591       10.72058202733786
H           89.61099268021965        1.31110674766033        7.61653677406163
H           89.59354600347550        1.47546431968470        5.15259984344719
H           93.21133227404383       -0.35031425025488        4.43283923012657
H           95.07173356081671       -0.25432267055808        2.49688787418315
H           91.35075112092409       -1.50119947184509       -5.31712807861694
H           91.32773066779700       -1.27510771469538       -7.78779861932124
H           89.97799146535340        1.88354627782165      -10.67987773235100
H           89.55188362448631        2.60567078785051       -7.41647520976194
H           89.58304423042480        2.38644129788840       -4.95680868159747
C           62.62536569301917        0.00998010738050       -0.03039691732191
C           63.83942588057283        0.01364113194002       -0.03456101678700
C           73.53816282794217        0.01984203037105       -0.01156949559316
C           74.75578726437483        0.02292777785293       -0.00443277666269
C           84.45221596510967        0.04226659262156       -0.00865770278631
C           85.66639427765691        0.03638197505983       -0.01736639197771
Cu          68.68832582468794        0.01686276127808       -0.02816263436642
C           65.25705207797843        0.01473949157946       -0.03523246713324
C           65.90123124545512       -1.23008210316380       -0.01938263579234
C           65.22647125299102       -2.49324754020763       -0.07095756005761
C           66.18251016696186       -3.45429524256148       -0.01224433522420
C           67.44807713714368       -2.78310568044911        0.08961412370417
N           67.24581071935552       -1.43065962257002        0.06828729819602
C           68.68806466410695       -3.41718273034214        0.19950714961518
C           69.92485864894265       -2.76894091060426        0.23753265291872
C           71.18426396882619       -3.41815534210227        0.46491183346405
C           72.14027821721446       -2.45616814417961        0.41610055224433
N           70.13260798582230       -1.42566136982098        0.07260093360948
C           71.47508100651338       -1.21515965722168        0.15773847727268
C           72.12829327057896        0.01849008310022       -0.01775529936541
C           71.47457665086266        1.25114861147802       -0.19871543617863
C           72.14007529037730        2.49244467079671       -0.45457205394120
C           71.18344724535267        3.45351774883297       -0.51003124232400
C           69.92326362912476        2.80353655924735       -0.28881508587946
C           68.68548182430500        3.45080905952122       -0.25733200892010
C           68.69167542540769        4.93086269339391       -0.33479422521286
C           69.36193673023415        5.68187458324366        0.63529841653497
C           69.36521981415243        7.06272803812327        0.57144218448213
C           68.70200695994093        7.72044103910036       -0.46648359136042
C           68.73457089432436        9.20199624662773       -0.49222581082130
O           68.06317197133136        9.73694511544423       -1.52352404654271
O           69.30195079848208        9.88429872964045        0.32294504517770
C           68.03479684223463        6.97600399704640       -1.43989510193837
C           68.02945618303838        5.59375345233369       -1.37145605960835
C           67.44540285476602        2.81529597288241       -0.15331028131646
C           66.17866885547897        3.48477073839673       -0.05471785383017
C           65.22352321483963        2.52247792700785        0.00034874204563
C           65.89983150704833        1.26026098018413       -0.04970009057310
N           67.24457303260989        1.46265000786280       -0.13366109226724
N           70.13129161226297        1.46053716487789       -0.12247436627846
C           68.69439414225062       -4.89752535357033        0.27844842844724
C           68.03890577075165       -5.55896228645708        1.32044445655473
C           68.04747940110738       -6.94014664204772        1.38508318092214
C           68.70729267208552       -7.68660768572020        0.40690614161993
C           68.68495766648071       -9.16497820747336        0.51697221338474
O           69.35598481047943       -9.78629301109958       -0.46458854852904
O           68.12500885092625       -9.77332222035652        1.39327138479255
C           69.36269215226984       -7.03136899701429       -0.63606211349939
C           69.35718452288141       -5.64893489811114       -0.69577484925168
H           64.15844615499901       -2.61752216527787       -0.15201161532535
H           66.04748544162447       -4.52316988182029       -0.04729520794377
H           71.31460271280301       -4.47049448036485        0.65867545615976
H           73.20247469329649       -2.56871984719225        0.55705829710922
H           73.20299453278358        2.60593026543178       -0.58942481502959
H           71.31474588877330        4.50561457066050       -0.70440638226424
H           69.86618315183016        5.17354197880783        1.44933069638867
H           69.87869887127546        7.65084281409327        1.32416108128383
H           68.13283265871218       10.70373114961608       -1.46565802753737
H           67.52261077109927        7.48209751317771       -2.24966768015342
H           67.52274518681131        5.01591760796826       -2.13622812778902
H           66.04161263570155        4.55336027877424       -0.01830187296938
H           64.15508298679258        2.64536070343751        0.07856509141905
H           67.53727817213337       -4.98117625967822        2.08841662984790
H           67.54520240741027       -7.45981920859755        2.19366891031335
H           69.29550472159484      -10.74455018521413       -0.31970718438201
H           69.87348366798460       -7.60655251109812       -1.39921848341462
H           69.85601496282681       -5.13993504665797       -1.51288304515472
Cu          79.60420617563094        0.03333468254938        0.00315587049003
C           76.16559605649930        0.02458988646093        0.00063105235712
C           76.82187883069824       -1.21865428663312       -0.05391979182406
C           76.16108602383905       -2.48094208672272       -0.19266967638404
C           77.11983369234412       -3.44031941966905       -0.14367937646659
C           78.37644825738846       -2.76852037638598        0.02631466664140
N           78.16449470489272       -1.41604134530437        0.05625791745802
C           79.61479619089656       -3.40456536581514        0.14221588137470
C           80.85103534029794       -2.75621618792271        0.20476211854221
C           82.11617726065552       -3.40615045315795        0.40266715781539
C           83.06948458634942       -2.44113853962607        0.36240841287928
N           81.05007550073287       -1.40964468950773        0.07359927947874
C           82.39340133725509       -1.19570015371385        0.15095372982359
C           83.03526116704072        0.04139248121386       -0.00200691939131
C           82.38800515535792        1.27584313969837       -0.15199790657937
C           83.05778498415816        2.52398199399544       -0.36766738209774
C           82.09988514883949        3.48449206397968       -0.40745740690315
C           80.83822122441140        2.82929232859710       -0.20428166461211
C           79.59844710979347        3.47102501897371       -0.14051557165939
C           79.59172808397534        4.95151051352460       -0.20559593393555
C           80.27970115168721        5.70735579105513        0.74784709058535
C           80.27142998304627        7.08837293343194        0.68293173011036
C           79.57857351170043        7.74093561522514       -0.33863940841933
C           79.60284488292056        9.22293076824630       -0.36847307312931
O           78.90015364674950        9.75096291455506       -1.38200878753036
O           80.19034379179449        9.90968044989959        0.42829620126889
C           78.89051868165889        6.99158905092491       -1.29352194539097
C           78.89678082167067        5.60960097875676       -1.22404797036491
C           78.36389526268250        2.82807354953419       -0.02016542036466
C           77.10423657478734        3.49334012010627        0.15279129093400
C           76.15015737048469        2.52920659961246        0.20055993499313
C           76.81690969035839        1.27052250866052        0.05902768914443
N           78.15862319407103        1.47452806186588       -0.05134882231393
N           81.04402850118177        1.48399407224338       -0.07072746201759
C           79.61686271753013       -4.88556279750488        0.19974093260905
C           78.93594859308885       -5.55410567910996        1.22107127951697
C           78.94037071870032       -6.93552579094174        1.27570846493111
C           79.62099364182228       -7.67588590489283        0.30708939655393
C           79.59396534123793       -9.15469686577148        0.40647769979606
O           80.28085530901947       -9.77116120582570       -0.56738930413358
O           79.01785263560159       -9.76811191525527        1.26866716865252
C           80.29984154109647       -7.01391119150185       -0.71649007212249
C           80.29849442901777       -5.63095876507992       -0.76598491098543
H           75.09974078886681       -2.61018771935476       -0.32562217929371
H           76.99227800188277       -4.50687229526797       -0.23403971715581
H           82.25242492746985       -4.46304613076224        0.56524206147713
H           84.13648722354627       -2.55105501253483        0.47283430350689
H           84.12397899195298        2.63881940966586       -0.48101332913010
H           82.23144610051131        4.54152359433573       -0.57297629932958
H           80.80658964653219        5.20351729802983        1.55022365748375
H           80.79923473558627        7.68065227409837        1.42236207914682
H           78.96410664684478       10.71843101578234       -1.32982151664918
H           78.35365616187821        7.49345311250770       -2.08980511258651
H           78.37332552874547        5.02741174105783       -1.97412073185203
H           76.97160264711199        4.55894372614679        0.24665549916272
H           75.08843069366726        2.65274203852940        0.33594386383739
H           78.41740481556839       -4.98088855539024        1.98121391926709
H           78.41889806863597       -7.46011884323842        2.06879595020695
H           80.21410387051895      -10.73015435350184       -0.43060777946076
H           80.82597871640512       -7.58444114911669       -1.47270775519647
H           80.81495644051064       -5.11744324379170       -1.56916601974491
