288
 energy: -468.432486347334 gnorm: 0.000958455635 xtb: 6.5.1 (b24c23e)
Cu          42.55405116401229        0.05042078819895       -0.11657413932052
C           39.15940944165811        0.17843607231651       -0.37117678217980
C           39.80241075356608        1.35010802119060       -0.00074309044602
C           39.13660353158229        2.57990807918882        0.32029637189872
C           40.09948011836444        3.47594447196106        0.65080879645662
C           41.36443234831642        2.80528444453917        0.52047883575792
N           41.15185754819533        1.51301912517174        0.13368618381134
C           42.61121877262748        3.38508588706281        0.76625048412974
C           43.83620579417374        2.72371284791018        0.66186860992133
C           45.11953707584516        3.34078456324774        0.84298797912751
C           46.05615191630024        2.37937388768429        0.64183932096140
N           44.01250876887400        1.40258909967206        0.34399860908283
C           45.35334622135780        1.17035617393103        0.33390856891478
C           45.97691243952183       -0.06152991468069        0.06714504082765
C           45.30605267337734       -1.25843614435169       -0.23990279948336
C           45.96019848061864       -2.50472728369028       -0.50409616232161
C           44.98785378418501       -3.41129971738770       -0.77740588731328
C           43.73137508692728       -2.72407413624437       -0.67966111132759
C           42.48542295180840       -3.30137653094718       -0.92826229345887
C           42.45630637935992       -4.74826558932011       -1.26449985009176
C           42.02697016810865       -5.17072686260892       -2.52053826222488
C           42.00210920609170       -6.52507961329986       -2.84022962991886
C           41.52590316355812       -6.97119886250038       -4.19630291900169
C           42.40281989631800       -7.45706218386613       -1.88922392753044
C           42.83103154254075       -7.05027675045268       -0.62799266797069
C           43.27392863272375       -8.07228797301417        0.38386110327457
C           42.85957141814545       -5.69464101203511       -0.32285761326451
C           41.26525848297695       -2.62337152379760       -0.88944266498253
C           39.97951969453769       -3.22148588523037       -1.12575096384758
C           39.05131969019440       -2.24389299647973       -0.97762375932621
C           39.75962738292542       -1.04283041378780       -0.63858436022869
N           41.10002291790598       -1.30095405972089       -0.59208703714985
N           43.95879017445942       -1.41322999753347       -0.35176809987424
C           42.63857495394775        4.81424730878864        1.16816753665219
C           42.16031008721031        5.80063067828324        0.30664841143181
C           42.18570057182458        7.13934146606411        0.68226596681624
C           41.69037827706409        8.20385908264751       -0.25919480567957
C           42.69378358341365        7.48854594298373        1.93016537276603
C           43.17519884954476        6.51589452158467        2.80109551688201
C           43.70245830229980        6.90193240411134        4.15670961574240
C           43.14525622118521        5.18031799385827        2.41435717547513
H           38.07724033720692        0.21687324389457       -0.44254145478297
H           38.06755930272853        2.72278084366770        0.30052017934950
H           39.97100938869164        4.49910835919100        0.96554598969287
H           45.27976205946438        4.38045422948823        1.07847758188243
H           47.12927825224214        2.47193269544457        0.69223774601135
H           47.02773228196255       -2.65570070856996       -0.48422041325512
H           45.10641733998593       -4.45110994836503       -1.03596908074914
H           41.72711415371653       -4.43400859757758       -3.25778566310551
H           41.91393075513454       -7.96025845595102       -4.43991315782083
H           40.43469609286112       -7.01954101976709       -4.20937334774201
H           41.84165687741603       -6.26795932524873       -4.96743647640674
H           42.38275210130734       -8.51464339947569       -2.13177423596975
H           43.30921990620999       -7.64132034361688        1.38427455041716
H           42.59493119886402       -8.92578313840927        0.39131553303611
H           44.27183871703915       -8.43766501013890        0.13203341516543
H           43.18193012464739       -5.36473254895090        0.65868318682167
H           39.81533322274991       -4.26006099530807       -1.36430242119961
H           37.97975317376075       -2.31731228510523       -1.07778008906803
H           41.78180180636976        5.51813217822422       -0.66968104611121
H           41.21265633929356        9.01510264471177        0.29092800619542
H           40.97601047622027        7.79163441456870       -0.97192004595858
H           42.52875850640317        8.62306335300247       -0.82018265063865
H           42.71531692850687        8.53216732990485        2.22695364561234
H           42.88413149325932        6.92772562982034        4.87992781776729
H           44.16019178340002        7.89100125792452        4.12775950638069
H           44.44139446418133        6.18051876944800        4.50591699463813
H           43.50463690290312        4.41175967629499        3.08999898492437
Cu          90.66465276297262        0.05880278565753       -0.07647519196286
C           94.05685615909522        0.27636534750826       -0.30189528035419
C           93.40625474641736       -0.40879803733270       -1.31708268162724
C           94.06351329676579       -1.05703766167599       -2.41558757033874
C           93.09543905877740       -1.63090154538599       -3.17230073577088
C           91.83564949309726       -1.32659059068462       -2.54991692427309
N           92.05656581764681       -0.59115310589840       -1.42076605602644
C           90.58649657222493       -1.73715195645239       -3.02086262327058
C           89.36675208729027       -1.46121540590219       -2.40053647738354
C           88.08000356337973       -1.82413544613019       -2.92354666804200
C           87.14975949434394       -1.36052061945928       -2.05105427601629
N           89.19884784896114       -0.77741707365559       -1.22530565532274
C           87.85965379948260       -0.70914241783052       -0.99129488340605
C           87.24405486393429       -0.09138840006455        0.11097122076406
C           87.92093363182458        0.55469008910760        1.15936712180197
C           87.27438481848887        1.16919821383772        2.28002242653422
C           88.25243414932899        1.68768502247618        3.06507631956105
C           89.50486964861847        1.39220813379874        2.42857642818751
C           90.75469802580101        1.78975119670664        2.90551840740841
C           90.79363253218720        2.52013074954423        4.19875376811042
C           91.22744012438370        3.84297500637898        4.24801550073027
C           91.26371652969630        4.53013699044935        5.45776460791745
C           91.74523010109924        5.95526526661810        5.50161392515629
C           90.87004804507725        3.88038234759352        6.62245824426649
C           90.43716055152476        2.55712201705175        6.58961984277467
C           90.00220866294801        1.87414945423171        7.85804518481644
C           90.39685430425703        1.88367093093099        5.37445912071571
C           91.97043139008112        1.55749914185288        2.25915710351500
C           93.26008414402183        1.95162724524165        2.75752130188914
C           94.18144594031689        1.53525435346560        1.85375867655330
C           93.46516432168502        0.87284311656733        0.80140954497505
N           92.12684838782161        0.89995611364911        1.07270004693513
N           89.26948638241440        0.70309939575210        1.26823508766092
C           90.55094431147982       -2.52391421395615       -4.27980841353954
C           91.00375042561683       -1.96512012557581       -5.47421860712909
C           90.97112298679828       -2.69944728088652       -6.65468454386213
C           91.43832688256614       -2.08504506780052       -7.94662387041832
C           90.48184843250493       -4.00234940959526       -6.63447374928299
C           90.02618826282914       -4.57409337047009       -5.45050209774904
C           89.51986668261084       -5.99119673741765       -5.43541442265372
C           90.06270669641799       -3.82968251018427       -4.27621458702177
H           95.13825347527813        0.33746422224106       -0.36901083655204
H           95.13095318945385       -1.07134868214033       -2.57056544916953
H           93.21706645076867       -2.21832200513957       -4.06817086888106
H           87.91342493154156       -2.35241128328979       -3.84834721331969
H           86.07648860551535       -1.44402254867549       -2.11276661650508
H           86.20767691031348        1.19681966766405        2.43569437795000
H           88.14071011943248        2.23420128883201        3.98756060036736
H           91.52220771973994        4.34248367157442        3.33161262819366
H           91.36021928944089        6.46999947062464        6.38195290923949
H           92.83658748788996        5.97735473549576        5.54307203561748
H           91.43046411724811        6.49730614262325        4.60944721359115
H           90.89956549876568        4.41005951441233        7.56917601537244
H           89.97080413390728        0.79251360589460        7.72797099118861
H           90.68350463808284        2.11137742878881        8.67603594085796
H           89.00394197837281        2.21490132006499        8.14112664310848
H           90.07070922412154        0.85006154388329        5.33599303083469
H           93.43128196444555        2.47215523454233        3.68608772744392
H           95.25329386767123        1.65209110875322        1.88795570330159
H           91.36818162471366       -0.94362737345995       -5.48051957490427
H           91.91506267675793       -2.83304299932329       -8.58078606295465
H           92.14596019361315       -1.27714749113660       -7.76007482841760
H           90.58595904415314       -1.67286745146077       -8.49153803176727
H           90.45489409127420       -4.57884625425177       -7.55350831754639
H           90.35049608941549       -6.68049184789030       -5.26709307336925
H           89.05485770893999       -6.24727410288255       -6.38767803176531
H           88.79216219912739       -6.13522497680095       -4.63658167658249
H           89.72316364451210       -4.26907428431690       -3.34456118079937
C           51.17833217664245       -0.12839266087500        0.09680522996471
C           49.95019048836711       -0.12325168128530        0.10875235731856
C           48.60559310382192       -0.11122327982887        0.10751880260563
C           47.38198589022848       -0.09453555900235        0.09796820949451
C           52.52260556279638       -0.12167799160399        0.07850907158936
C           53.74625975211710       -0.11477814319783        0.05340118342164
C           67.22338394504554       -0.03213628202336       -0.03945917075829
C           65.99487002664678       -0.03354060275676       -0.04555293727085
C           64.65085590872313       -0.04055329302436       -0.05081334626982
C           63.42674235672165       -0.04759692748017       -0.05419778714660
C           68.56742541347920       -0.03249219481377       -0.03076697093859
C           69.79148741848167       -0.03559705678609       -0.01970832412579
C           83.26880899626354       -0.11348806911753        0.19101469286630
C           82.04120763502897       -0.10714250553251        0.18436138574325
C           80.69567999723998       -0.09044163379594        0.16929996890959
C           79.47262127856330       -0.07957326107409        0.14321506999485
C           84.61467911867375       -0.11396070145877        0.18046711774214
C           85.83767656479425       -0.11093362391160        0.15948012414782
Cu          58.58645725043210       -0.08458372007155       -0.02305037588926
C           55.15103156001700       -0.10714508429947        0.02828385382860
C           55.78996132673047        1.13951783660202       -0.10053725422366
C           55.10402179679104        2.39475907613683       -0.16428205082480
C           56.05215570393196        3.35610971310278       -0.30517241707880
C           57.32370530764253        2.69168794847187       -0.33511713475404
N           57.13134519256016        1.34220043536515       -0.20046262645733
C           58.55733661406381        3.33232523231941       -0.46501535424486
C           59.80203205693368        2.70123234528497       -0.42543449183951
C           61.06311182327057        3.35814291009697       -0.61851506238538
C           62.02787634424307        2.41038084551039       -0.49988729928218
N           60.01719920029563        1.36597383216770       -0.20813057172566
C           61.36251580216440        1.16881902298168       -0.24373342171374
C           62.02217788566481       -0.05864966093931       -0.05068087081321
C           61.38390542747926       -1.29687175614939        0.14592119889522
C           62.07170942949552       -2.52977589873090        0.38435397787655
C           61.12334382075611       -3.49314634413070        0.50918736341515
C           59.84961786536753       -2.85416201906814        0.34008539650578
C           58.61518424490715       -3.50390629245471        0.39940436604450
C           58.62924555502014       -4.97773023922336        0.57948380226272
C           58.05839803829389       -5.55359440509758        1.71285476594592
C           58.07107041059780       -6.93393901950641        1.88689745829424
C           57.47414079334578       -7.54472988048791        3.12590908377293
C           58.65739851328904       -7.73809204367644        0.91509429890462
C           59.22844236020932       -7.17803672184410       -0.22459397693389
C           59.87053958848262       -8.06056076995158       -1.26068438988020
C           59.21447045923937       -5.79738749254725       -0.38526089055074
C           57.36985435629989       -2.87972248701132        0.30506343547819
C           56.10670967557783       -3.56079370750715        0.30520822422771
C           55.14223669546855       -2.61077046051556        0.20357039130832
C           55.80952675017622       -1.34607832322981        0.13073757165069
N           57.15586490972106       -1.53178687950282        0.18820563752090
N           60.04130815809938       -1.51446916633346        0.12826498978810
C           58.54549258370890        4.80468386465925       -0.65774584942264
C           59.13345668710910        5.64157913445682        0.28917556564788
C           59.12258561919695        7.02181837659428        0.11630127728954
C           59.77122215690869        7.91706962544516        1.13735558323698
C           58.52444268586920        7.56194471947917       -1.01782424373992
C           57.93425765054862        6.73925074991005       -1.97315959469597
C           57.30900215160018        7.33481080346353       -3.20567163970965
C           57.94585230501892        5.36137459201908       -1.78676015522565
H           54.03440322661268        2.51591973104628       -0.10121761458391
H           55.90820645569799        4.42247517076784       -0.36995705965659
H           61.18971097399389        4.40741296421111       -0.83077218629186
H           63.09608881448889        2.53042342382849       -0.58521498761719
H           63.14272886964601       -2.63418546106131        0.45353228091407
H           61.26904124688588       -4.54186735879927        0.71180646240033
H           57.61448813472689       -4.91573189976671        2.46936798598625
H           57.16190207963523       -8.57275575277981        2.94166781905105
H           58.21425337385377       -7.55214186174625        3.92930694563386
H           56.61277070177891       -6.96889576377295        3.46524468681001
H           58.66751669113417       -8.81549589640303        1.04438715417029
H           59.95105162555826       -7.54404322357896       -2.21708914607096
H           59.29350622067652       -8.97518309322471       -1.40061228453538
H           60.87566536111724       -8.34127537387121       -0.93789507177662
H           59.64381261902922       -5.34951637742515       -1.27476503384505
H           55.97847186869139       -4.62956235320491        0.36244458356731
H           54.07284071812795       -2.74554210840432        0.17104900820282
H           59.58497847604095        5.20938250380781        1.17550248762325
H           59.31314954426750        8.90625297689704        1.13511538805924
H           60.83290827064074        8.03293468883680        0.90746010140147
H           59.68630605285885        7.49022645450375        2.13699919233317
H           58.51449000053424        8.63799488042938       -1.15805589826798
H           56.86196958872668        8.30419740504352       -2.98374164630796
H           56.54083686672728        6.67541421540912       -3.60986673693219
H           58.07119281326515        7.48122432377541       -3.97446230427090
H           57.49877563488000        4.70913056719893       -2.52902331671102
Cu          74.63156019233317       -0.05931752939159        0.04130264513416
C           71.19611567795167       -0.04209169300072       -0.00496556797742
C           71.85308676601052        1.19561400152310       -0.12934551853322
C           71.18376305446317        2.45758394768544       -0.22706325548870
C           72.14672904690418        3.40712094662665       -0.34550128983994
C           73.41117749791717        2.72864711222821       -0.32705968895721
N           73.19920961486902        1.38260652779309       -0.18697074460873
C           74.65549693721455        3.35510104320824       -0.41894855231548
C           75.89122248982376        2.71121764266951       -0.33020688732974
C           77.16561493390499        3.35385776510919       -0.48101297793352
C           78.11515553020234        2.39616496400914       -0.32674082832619
N           76.08387948540684        1.37468559297997       -0.10151681681565
C           77.42775387012058        1.16207585084113       -0.09216828006710
C           78.06632560910741       -0.07342297902643        0.11359891445373
C           77.40946175020170       -1.30477266937657        0.28441300567937
C           78.07626750101740       -2.54801859678035        0.53022301715825
C           77.11355217597414       -3.50022523724609        0.62569114346315
C           75.85199099122707       -2.84400861753710        0.43194565140333
C           74.60875008329205       -3.47878116031539        0.46288985938973
C           74.60191377062898       -4.95415463781410        0.63210526191076
C           74.01130305571661       -5.53307688282806        1.75354708922060
C           74.00337263216916       -6.91529643819679        1.91360226119348
C           73.38499820434085       -7.52980550141602        3.14024605568950
C           74.58834168747293       -7.71773348710791        0.93956830090521
C           75.17910936681558       -7.15428171990304       -0.18836001798814
C           75.81936555272931       -8.03454329551882       -1.22757008468694
C           75.18637343164139       -5.77195889811656       -0.33461243658759
C           73.37347393101797       -2.83930670964055        0.34581086221588
C           72.10202487505948       -3.50452349562089        0.32468827914851
C           71.15203921114875       -2.54318301232599        0.19736628424317
C           71.83671783449464       -1.28739948761021        0.12968808959072
N           73.17886048039938       -1.48928719333873        0.21813070567989
N           76.06474524233501       -1.50592222753571        0.23323961921096
C           74.66435678114802        4.82518077786819       -0.62855591683671
C           75.22781418086770        5.66972254477835        0.32632766114648
C           75.23251755719714        7.04780869768871        0.13599421076681
C           75.85435114537449        7.95148137812165        1.16628231272611
C           74.67443793862559        7.57793178475061       -1.02295692098847
C           74.10916152699525        6.74745443510057       -1.98661280662209
C           73.52608071652726        7.33152893477185       -3.24502957087843
C           74.10555615626583        5.37202312527992       -1.78319199929958
H           70.11407501541001        2.59099230883929       -0.20017917076231
H           72.01677928550211        4.47440066598122       -0.42387396441905
H           77.31106058930665        4.40112368522368       -0.69113962373040
H           79.18693091881964        2.50416092641980       -0.37581129012513
H           79.14396903075537       -2.66597776578426        0.62418020307225
H           77.24109368555990       -4.55224638751720        0.82336440779634
H           73.56772513874803       -4.89681131462763        2.51161731030582
H           73.07740216489752       -8.55780355764985        2.94816644726127
H           74.11030475412066       -7.53778871026146        3.95705718096071
H           72.51680934619147       -6.95576744930332        3.46508345610829
H           74.58167819209362       -8.79648162670583        1.05772554241571
H           75.89899295304753       -7.51536786089663       -2.18268901577708
H           75.24176278008896       -8.94852084401995       -1.36935212035957
H           76.82490660072691       -8.31641096799409       -0.90700936070398
H           75.63183052201579       -5.32090487988230       -1.21457134789057
H           71.95909434042193       -4.57122698433925        0.38655047692868
H           70.08192950937305       -2.66484634523413        0.14414402375022
H           75.64701611756456        5.24583441601132        1.23232015385994
H           75.40792066624456        8.94541987058243        1.13277902749730
H           76.92484980141666        8.05227292755645        0.97314386344745
H           75.72876282997768        7.54096399045974        2.16849215709376
H           74.67606648506069        8.65225028303904       -1.17623826504831
H           73.07926949982030        8.30659581529767       -3.04901360153115
H           72.76588790000640        6.67212792478975       -3.66407273422337
H           74.31221795449814        7.46301827858641       -3.99209453628365
H           73.67780954632022        4.71357613734934       -2.53135969276949
