119
 energy: -209.821659505901 gnorm: 0.000171364412 xtb: 6.5.1 (b24c23e)
Zn          13.54811612241295       -0.02074510368099       -0.01716834664570
C           10.12017986660353       -0.03669651728368       -0.03725371429715
C           10.75351561301129       -0.91199403862494       -0.91286959495245
C           10.09046192729107       -1.81387346201139       -1.81666665494151
C           11.05784113441861       -2.48690234831059       -2.48881146091261
C           12.32288542016011       -2.00395544039702       -2.00349547337832
N           12.10326202454632       -1.05257446765805       -1.05155456290054
C           13.57206546510800       -2.43718878107359       -2.43519744477198
C           14.81135784305640       -1.99373748572398       -1.98996748460870
C           16.08137696412152       -2.46872019854557       -2.46392238292940
C           17.03919846994002       -1.78863313226790       -1.78327918296236
N           15.02046585967398       -1.03733933910514       -1.03307402416253
C           16.36321695722751       -0.89264094359840       -0.88756646922909
C           17.00191800849704       -0.00302532330541        0.00144805906834
C           16.34475941416500        0.87931613956281        0.88408622768109
C           17.00185933211487        1.78158913500806        1.78748654025078
C           16.02983253763216        2.45112285479504        2.45840899431423
C           14.76989691805695        1.96375795052990        1.97025120420359
N           14.99908794912286        1.01012414730571        1.01522627621466
C           13.52135899558087        2.39480870975172        2.40166915377797
C           12.28140096238127        1.95001330410852        1.95534978286486
C           11.00630961325868        2.42100324811343        2.42592899670507
C           10.05316588348668        1.73949898911569        1.74209002414279
C           10.73510338788112        0.84416242950114        0.84587564485738
N           12.08177403316516        0.99705134830068        1.00058620770291
H            9.03461343020545       -0.04166489090410       -0.04366319437049
H            9.02011892117908       -1.90938586864725       -1.91397125628361
H           10.93957211645711       -3.24479968559259       -3.24764116825418
H           13.58033125236289       -3.20471733463975       -3.20311764776521
H           16.21153313184913       -3.22601334922080       -3.22117564141373
H           18.11040974473521       -1.87801560569968       -1.87200282903623
H           18.07110883922194        1.88174914606159        1.88773699631217
H           16.14403078706924        3.20902205076146        3.21763220849597
H           13.51343151616049        3.16184823794734        3.17008381453427
H           10.87208950974330        3.17742750215869        3.18357351405389
H            8.98091224515496        1.82518002878410        1.82669992770153
Zn          45.72579176052096        0.00335297106993       -0.00961451998072
C           49.15343376779990        0.04018436493264       -0.01225847529915
C           48.51599127367450        1.27527050488536       -0.05851040980850
C           49.17478162286709        2.55339009094105       -0.10719841358939
C           48.20425927863442        3.50075249609384       -0.14019103941182
C           46.94146178605845        2.81243809947958       -0.11196122190990
N           47.16559894459343        1.46820867395517       -0.06331326899952
C           45.69030147010206        3.41960801589978       -0.12956070351791
C           44.45315911835677        2.78743607529241       -0.10298065247736
C           43.18081661848565        3.45395446476158       -0.12180271633778
C           42.22626727168085        2.48927933542458       -0.08675636036107
N           44.24873100493993        1.43480559665218       -0.05635185291195
C           42.90648031080313        1.22513793251811       -0.04642918682593
C           42.27239414676314       -0.03382146558128       -0.00891764026238
C           42.93318065449455       -1.27880829471726        0.02931146705783
C           42.28030299691233       -2.55720256541446        0.07155801911312
C           43.25541245105526       -3.50110138145890        0.10706228605644
C           44.51316361763117       -2.80741773421495        0.08632561417234
N           44.27966279692903       -1.45956282220475        0.03870326796987
C           45.76370340791438       -3.41276068478408        0.11183742508444
C           47.00151171566582       -2.77884240793314        0.09199022130841
C           48.27885698433856       -3.43985650184212        0.11871003112841
C           49.22877120747214       -2.47190585860692        0.08354997632166
C           48.54263693767111       -1.20824937979837        0.03523563781410
N           47.19669466123879       -1.43013391883625        0.04230603475139
H           50.23896798819794        0.05180311709572       -0.01311665202180
H           50.24466398981774        2.69312635380971       -0.11459638195405
H           48.31893962234313        4.57288994391931       -0.18008979431619
H           45.67830724785195        4.50461306218000       -0.16797339756899
H           43.04709729104057        4.52386369308129       -0.15761908793927
H           41.15464234400464        2.61165216734597       -0.08827524800894
H           41.21151668047001       -2.70238184130167        0.07408895162570
H           43.14479176636183       -4.57360085312955        0.14428753639307
H           45.77517067328600       -4.49774226756649        0.15124001187226
H           48.41663772798179       -4.50925307656621        0.15906432748927
H           50.30142113128534       -2.58861793709119        0.08930526675893
C           22.20418354803131        0.01299449462159        0.00913105552577
C           20.97557690590988        0.01212394211148        0.01045127093009
C           19.63111016874393        0.00865993015520        0.00974974009357
C           18.40694667497642        0.00443670889061        0.00737934304435
C           23.54854527495156        0.01154809957762        0.00678178834446
C           24.77285176604632        0.00843222436050        0.00341557681896
C           38.29739216434455       -0.05817022668588       -0.01219237437278
C           37.06915709826595       -0.05819136359386       -0.01313374051469
C           35.72405808779039       -0.05505942082544       -0.01307916280536
C           34.50006588906772       -0.05023401701545       -0.01271068411110
C           39.64263120018574       -0.05396845705839       -0.01057024930280
C           40.86643633987448       -0.04748620452432       -0.00938612814190
Zn          29.63610135701179       -0.01873437713387       -0.00714868215399
C           26.17734845218530        0.00194007755008       -0.00054062878540
C           26.83385791364122        0.94193972989096        0.82128456959943
C           26.17596562903830        1.90435436937118        1.65875141640994
C           27.14764806274603        2.61973037710510        2.28185060882438
C           28.40700274747991        2.09959036227631        1.82967864429902
N           28.17950462882333        1.08129601378496        0.94387379974110
C           29.65585716345247        2.56005629852803        2.22892501875395
C           30.89755948957458        2.08884533123892        1.81981189714858
C           32.16482843249575        2.59861267436784        2.26173120187896
C           33.12547625966838        1.87216581399757        1.63448773116473
N           31.10934074949500        1.06631992883473        0.93520006367532
C           32.45293304871458        0.91296669133331        0.80484032058362
C           33.09468806173659       -0.04151271564200       -0.01133425222920
C           32.43857933141187       -0.98720507447386       -0.82621048528160
C           33.09649668493869       -1.95469629025066       -1.65794513700341
C           32.12488712000470       -2.66784293611390       -2.28357489055882
C           30.86547827121860       -2.14159765966647       -1.83847183424962
N           31.09277922193474       -1.12263242505699       -0.95362403464085
C           29.61667506160435       -2.59615099726999       -2.24481361080623
C           28.37497171960363       -2.12019815997814       -1.84144404047067
C           27.10780183649073       -2.62461091206872       -2.28954937051629
C           26.14710024420942       -1.89844532175625       -1.66193501101277
C           26.81958026488187       -0.94484682190648       -0.82595695591586
N           28.16299046709775       -1.10000809397042       -0.95395244286634
H           25.10663787653117        2.01101638319700        1.75087083773591
H           27.03286362291137        3.42891190983436        2.98602358686950
H           29.66223075679870        3.38013629149506        2.94064662301002
H           32.29197247240948        3.40870736924773        2.96272247404691
H           34.19634378505038        1.96869035982973        1.71956297880697
H           34.16581690979125       -2.06531353781055       -1.74538213747667
H           32.23967340965119       -3.47906846719900       -2.98539454216123
H           29.61046491274492       -3.41564106581251       -2.95721678408166
H           26.98067592001587       -3.43154545440955       -2.99417909936228
H           25.07624953010303       -1.99222125513217       -1.75024535909002
