114
 energy: -193.771378361867 gnorm: 0.000484573913 xtb: 6.5.1 (b24c23e)
Ni          15.34053329055138       -0.05230445451058       -0.01668369898421
C           11.95002705362893       -0.08534152255381       -0.01665912932104
C           12.61076603549475       -1.27446460516858       -0.24676518191834
C           11.94428870579872       -2.51886548288414       -0.48289454215987
C           12.90488703274215       -3.47133368037572       -0.52960601481300
C           14.15925235156440       -2.80727540315889       -0.32630230645398
N           13.96969199446650       -1.45532797015634       -0.18185182512321
C           15.36936267897536       -3.46892756810225       -0.16655366158758
C           16.56654977567809       -2.80131552268645        0.05303979868431
C           17.82587430614178       -3.45974138211966        0.22318242044444
C           18.77124701655336       -2.49044521746269        0.26637838267639
N           16.74009920022889       -1.43591312762994        0.01617531187061
C           18.09206664766986       -1.24411756558880        0.10947325374279
C           18.75177936093489       -0.02028508698399       -0.03265103266701
C           18.06495347944625        1.18979705219954       -0.16347052749952
C           18.71373206494508        2.44714094674963       -0.35625437439048
C           17.75053555116482        3.39803983774136       -0.29522015891222
C           16.51302954431196        2.71757604821207       -0.06368423241081
C           15.30430564958841        3.36506354991878        0.15803947573034
C           15.29804406445516        4.84483981231591        0.24761084865019
C           14.56500644928808        5.60916043476854       -0.66096856355470
C           14.56464961107159        6.99315835503281       -0.57211682910232
C           15.28996645001134        7.62917934969372        0.42622203554887
C           16.02026603591833        6.87539699120255        1.33500953207995
C           16.02804512681667        5.49165205310727        1.24587661111012
C           14.10454558985969        2.67952493282897        0.29761382072992
C           12.84316424495267        3.30965585877763        0.55677973884391
C           11.90029747048236        2.33996316102555        0.49492999452929
C           12.58727247340792        1.11645501222514        0.21384763682227
N           13.94112206573809        1.32652552129114        0.13408575760415
N           16.71238264085934        1.35601152916180       -0.03411838792629
C           15.38147550020622       -4.95230309528788       -0.23207647803278
C           15.11091494182062       -5.60506258093293       -1.43461822185337
C           15.12226393899618       -6.99057337714120       -1.49658683059921
C           15.39837547774138       -7.73774813515759       -0.35963564978082
C           15.66613096526316       -7.09414937409484        0.84082960495919
C           15.66053184242190       -5.70864177081533        0.90596766792197
H           10.86632970245522       -0.09742968519774       -0.01000109161676
H           10.87632693994600       -2.63057743790052       -0.58284722803569
H           12.78722582596111       -4.53344183369428       -0.67110992826830
H           17.96076135614219       -4.52707266485044        0.28702152874909
H           19.83689865054112       -2.59741350303957        0.38484108882924
H           19.77122952824149        2.57262735154066       -0.52071101737769
H           17.85725912024282        4.46499378318807       -0.40354936568833
H           14.00804853723436        5.11449969380570       -1.44897416539988
H           13.99606001097377        7.57793654732565       -1.28672180191318
H           15.28650589839141        8.71107072560528        0.49572005152754
H           16.58647851977880        7.36734156300885        2.11818849922550
H           16.59016834723314        4.90323502503592        1.96255360230728
H           12.70963456361758        4.36000823462174        0.75884509722869
H           10.83321840740244        2.42573841612990        0.62539888535185
H           14.90431980847850       -5.02147058752314       -2.32485160406600
H           14.91503011175469       -7.48877139802042       -2.43719604137238
H           15.40459373531213       -8.82072815904359       -0.40908070662683
H           15.87937824024480       -7.67378299975658        1.73218380584755
H           15.85959185306255       -5.20671895209244        1.84628290697576
Ni          26.19859105315197        0.05298250953634       -0.01449461437261
C           29.58909786858839        0.08598095233933       -0.01292669378620
C           28.92835539811108        1.28397249896632       -0.19117804829029
C           29.59483374980475        2.53745123987913       -0.37305686987134
C           28.63423706204182        3.49105081547347       -0.37836628574549
C           27.37987148982246        2.81879338620752       -0.20408066322449
N           27.56943010343295        1.46184831108474       -0.11847943099179
C           26.16976001024717        3.47288783531935       -0.01576804663511
C           24.97257011506492        2.79637396822811        0.17463060431574
C           23.71324595860525        3.44679145621165        0.37320073595615
C           22.76787178978282        2.47653422368590        0.37426886696956
N           24.79901880612529        1.43385984126393        0.07852545683683
C           23.44705022303433        1.23819475705593        0.16339527397272
C           22.78734260057541        0.02168405636273       -0.03173609804060
C           23.47417572535624       -1.18157495760866       -0.21496764930247
C           22.82539646082278       -2.42936275324259       -0.46217209749863
C           23.78859389068028       -3.38201254770116       -0.44249472895817
C           25.02610011040475       -2.71224237795191       -0.18162470656322
C           26.23482170229720       -3.36875111087005        0.01177070728961
C           26.24108131106279       -4.85102083100749        0.03699530328100
C           26.97412287997529       -5.57516587175395       -0.90391378355904
C           26.97447979062472       -6.96171648592117       -0.87524327929039
C           26.24915901231178       -7.64048921753435        0.09453270306020
C           25.51885459361835       -6.92688126343084        1.03519151608527
C           25.51107579998943       -5.54057097455955        1.00622951068393
C           27.43458258460019       -2.68992382750226        0.18099448550107
C           28.69596177913972       -3.33071450926872        0.41255898656950
C           29.63882903364570       -2.35925029866740        0.39288097282144
C           28.95185699290748       -1.12469159794595        0.16518416501773
N           27.59800771999004       -1.33110083346424        0.07636277597643
N           24.82674774743884       -1.35324552240962       -0.09295695479450
C           26.15764912161885        4.95770951132015       -0.01682392267583
C           26.42820937067856        5.66206639896049       -1.18988954577436
C           26.41686008159546        7.04896115694864       -1.19164216005023
C           26.14074862399934        7.74606652148261       -0.02332176416055
C           25.87299373295851        7.05095185271974        1.14806721688596
C           25.87859377479969        5.66392268330717        1.15298634085510
H           30.67279521068950        0.09777525008291       -0.00575255030460
H           30.66279583597327        2.65339291724554       -0.46807345457202
H           28.75189646898841        4.55830163652303       -0.47362660905074
H           23.57835889425102        4.51034394684675        0.48332463570761
H           21.70222065195158        2.57826021359199        0.49726528363537
H           21.76790011417679       -2.54758853487038       -0.63192588320930
H           23.68187293178045       -4.44325340960867       -0.59706725757373
H           27.53108398268879       -5.04675411576874       -1.66969417370838
H           27.54307381560104       -7.51491277385973       -1.61456379221495
H           26.25262089466294       -8.72437791615404        0.11698655171854
H           24.95263890607236       -7.45236946935460        1.79626784122883
H           24.94894887350323       -4.98382857508767        1.74777813629702
H           28.82949242816729       -4.38885043705724        0.56882314175469
H           30.70590736610854       -2.45061213330980        0.51950801514588
H           26.63480481383204        5.11767839874299       -2.10462273516073
H           26.62409351893665        7.58752998190418       -2.10973288941137
H           26.13452958629746        8.83017208466417       -0.02569853241190
H           25.65974589450447        7.59133699977097        2.06374811110917
H           25.67953331361274        5.12164575468307        2.07062151135367
C           20.16139102722184       -0.00438629796958       -0.03938219951536
C           21.37773161568123        0.00608084095312       -0.03915618983344
