120
 energy: -215.605354368341 gnorm: 0.000426867137 xtb: 6.5.1 (b24c23e)
Co          16.91792009162612        0.04535093634072        0.00063061548696
C           13.54700217949258        0.04770283894366        0.13348436973883
C           14.20274939501874        1.25687827296156        0.04261646624670
C           13.54172201421027        2.52286301960745       -0.04860099593432
C           14.50049399619555        3.47126293118502        0.07115340964644
C           15.74466445245574        2.78227704746370        0.25268884022937
N           15.55901984096825        1.42609632031192        0.16641042663716
C           16.93885625099195        3.40081838200281        0.59808201889219
C           16.95085274346733        4.85900562748586        0.84949145769944
C           16.14456027118888        5.41271578350503        1.84684511360659
C           16.16205840009333        6.77390767531697        2.09206105275755
C           16.98645624894738        7.61193011089232        1.33533974739095
C           17.00773385483623        9.01302738173403        1.58636990322517
N           17.02711798722691       10.14495055818953        1.79245684555947
C           17.79123015793503        7.06351346625338        0.33226710896940
C           17.77350721394875        5.70061570096008        0.09685920365732
C           18.12206474690365        2.68717589557845        0.72429862008019
C           19.36622587488404        3.25921918635949        1.14330437514026
C           20.31325998428438        2.30669702306430        0.96717658547704
N           18.29608633045752        1.37013028927038        0.36699014788337
C           19.64424797334390        1.15440963229914        0.45193924924714
C           20.31018667688116        0.02376870600349       -0.02259703963611
C           19.62034401275301       -1.09497983202847       -0.49259608056439
C           20.26122461252718       -2.24278453984375       -1.05096962685118
C           19.29780047593883       -3.17957165653046       -1.22484367074021
C           18.07310516664034       -2.60400560421710       -0.75659936914904
N           18.27401168900746       -1.29939707700214       -0.36910280472195
C           16.88840905074782       -3.30901580602068       -0.60057285740370
C           16.87189903837031       -4.76071120648217       -0.88733968882590
C           16.01710539395831       -5.27884576683267       -1.86322969219592
C           16.00304667928239       -6.63399155077185       -2.14003812889950
C           16.84352615698361       -7.50168363064689       -1.43629018014367
C           16.83131241120379       -8.89724951309996       -1.71712610988713
N           16.82332200477400      -10.02540360498712       -1.94399462337174
C           17.69722510689337       -6.98883714791270       -0.45503776584453
C           17.71114224143985       -5.63162349038153       -0.18836812788942
C           15.71829290067841       -2.69020440055694       -0.18111796429837
C           14.48327264709497       -3.37772702288194        0.05957128481527
C           13.54166551072413       -2.42864822617729        0.27165929962634
C           14.20318786871034       -1.16358241518089        0.16811125767611
N           15.54909695542945       -1.33634980272142       -0.04179560680287
H           12.46417731196601        0.04919367925259        0.17149907271469
H           12.47917468562026        2.64862683877673       -0.18252422037943
H           14.38926395425936        4.54310842598892        0.04407016627104
H           15.51453940807250        4.76454316938944        2.44535913212632
H           15.53966697490703        7.19527692806324        2.87274506607108
H           18.42811682820002        7.71064156813540       -0.25926543046016
H           18.39087251197535        5.28032454408898       -0.68899820253418
H           19.48806927304827        4.26122472567427        1.52109816125582
H           21.37303067041363        2.36529333213959        1.15598012686436
H           21.31442969863949       -2.30854011317342       -1.27158546304469
H           19.39670379015615       -4.17287526285820       -1.63128895050755
H           15.37284831699561       -4.60728999958938       -2.41942378199971
H           15.34257382309290       -7.02756610508222       -2.90378379650665
H           18.34667699216074       -7.65935338743486        0.09548641297413
H           18.36609546957741       -5.23933146391846        0.58138732507760
H           14.36640766267316       -4.44932084358685        0.06153292400172
H           12.48910592534175       -2.55280505790799        0.47027797356958
Co          30.30582507579267       -0.04509781390059        0.00161841111497
C           33.67521779444766       -0.04016029514452        0.13408504223948
C           33.01927700551991       -1.25231667380266        0.09879156485377
C           33.67831026389056       -2.52208326100262        0.06331441044614
C           32.71941294621477       -3.46256095525843        0.23488635838842
C           31.47717368601871       -2.76422889888739        0.39209958166915
N           31.66362997122491       -1.41425611955217        0.23824847021417
C           30.28506791702940       -3.36172269850747        0.78017222013848
C           30.27332026064126       -4.80380612825681        1.11050280143398
C           31.09490544660298       -5.30551454400872        2.12286023400735
C           31.07752450065787       -6.65116353075702        2.44249525698769
C           30.23755115666573       -7.52602681842337        1.74716366173325
C           30.21642238746726       -8.91121175253874        2.07477552148736
N           30.19857214033726      -10.03036683608076        2.34182844424036
C           29.41730084342000       -7.03005511883085        0.72940632300125
C           29.43543072547632       -5.68226983566632        0.41913510014677
C           29.10381646515435       -2.63985823633615        0.87664853470317
C           27.86131749996439       -3.18432234345732        1.33554505559206
C           26.91416163705491       -2.24273712268441        1.10804895892461
N           28.92916632789134       -1.34531411069639        0.44514310974515
C           27.58147261832375       -1.12375012823805        0.52205751726026
C           26.91504088434716       -0.02418455089981       -0.02026549742219
C           27.60524358324222        1.06398345440185       -0.55726071058392
C           26.96661604366560        2.17579426567734       -1.18638518630095
C           27.93036564503321        3.10169543607768       -1.41059860035633
C           29.15285612447917        2.55668246740559       -0.90179190717573
N           28.95074618292197        1.27678268072138       -0.43998442721604
C           30.33534883626092        3.27158649036833       -0.77475115498596
C           30.35205677040382        4.70524022578348       -1.14025270433355
C           31.21983451531937        5.17229315113199       -2.13044016340780
C           31.23295901687177        6.50993872571467       -2.48209751341360
C           30.37825270307421        7.41159992777071       -1.84089676629870
C           30.38975551781735        8.78906911977736       -2.20012028500257
N           30.39831085466942        9.90242933807183       -2.49084871742362
C           29.51170936074398        6.95030348284616       -0.84545979502555
C           29.49910991476057        5.61004811386407       -0.50358795209030
C           31.50292080970166        2.67762258701972       -0.31377815681602
C           32.73588407105774        3.37750099500014       -0.09952620705321
C           33.67770417857150        2.44080524781974        0.16159314386187
C           33.01834737101571        1.17122728014301        0.11475779639379
N           31.67289628031903        1.33251629938778       -0.10705203680212
H           34.75808367366616       -0.03965075781917        0.17084227710174
H           34.73973413466808       -2.65571145641180       -0.07187159559440
H           32.82960138726740       -4.53460911239125        0.25788773462485
H           31.73689920202625       -4.62817457920231        2.67451389706780
H           31.71205699393582       -7.03162442909277        3.23430975172469
H           28.76811923502115       -7.70597071317801        0.18536235186630
H           28.80643077131169       -5.30340393489813       -0.37844444258828
H           27.74023928686660       -4.16195664909765        1.77276132824011
H           25.85530355852852       -2.28888209518615        1.30523538660517
H           25.91457777010572        2.22738590803839       -1.41615295548458
H           27.83280616558402        4.06864488859261       -1.87656574028331
H           31.87487424634893        4.47387847760181       -2.63889964609011
H           31.90351154157094        6.86347730336601       -3.25656243812050
H           28.85114592400421        7.64728408945329       -0.34315702207353
H           28.83413599998789        5.25832958622054        0.27710340062435
H           32.85144221087971        4.44817173554123       -0.14743991558927
H           34.72916429915200        2.57581852824845        0.35893460442172
C           22.93721069829535        0.00504250271178       -0.03735247562320
C           21.71598067169859        0.01355895482131       -0.03301652567819
C           24.28816689906879       -0.00438726291830       -0.03827969092124
C           25.50934109033925       -0.01459196987451       -0.03081460310241
