126
 energy: -247.596308754012 gnorm: 0.000733906093 xtb: 6.5.1 (b24c23e)
Fe          14.67342576475470       -0.03348692613542        0.00297444110672
C           11.28834297480814       -0.04313301749623       -0.16304926468305
C           11.93992456650589       -1.25858267469723       -0.20038132666391
C           11.26495888857237       -2.51976913469830       -0.26405318911855
C           12.22413534084264       -3.46731686794384       -0.38391409021384
C           13.48386720475317       -2.78089838685394       -0.40673463682530
N           13.29790858321432       -1.43373785714909       -0.25604150672317
C           14.70930909019699       -3.40809904427461       -0.60558934149281
C           14.72428162618044       -4.86569441715992       -0.86484131249882
C           15.38727298528466       -5.73271823377382        0.00882084202934
C           15.40540127680445       -7.09445814415639       -0.23248280516345
C           14.75920691126374       -7.59252706296977       -1.36026830592272
N           14.77865596320949       -9.02153913831030       -1.62093930844795
O           14.19829819238064       -9.41761960454273       -2.59889802955656
O           15.37554816796925       -9.72172509889605       -0.84368994233898
C           14.09503652101961       -6.74598393115849       -2.24333048892024
C           14.07820474410093       -5.38652775930502       -1.99002183250869
C           15.91931611273951       -2.72802675299283       -0.58067983454285
C           17.18852433602780       -3.34082366658811       -0.83909602002458
C           18.12943174496217       -2.38637595501694       -0.64276145892283
N           16.08439969570043       -1.39834243734905       -0.27630466254088
C           17.43236148073316       -1.19384891038746       -0.27545903627434
C           18.08244583539952       -0.01063445583551        0.09602418216359
C           17.39584227990130        1.16275193353577        0.43081206523213
C           18.05216463743333        2.35860483901678        0.85732597128264
C           17.08906892660867        3.30121243810199        0.99611303808744
C           15.84811812054188        2.67823015045416        0.64231227983201
N           16.04977052409746        1.35485219633862        0.33220482110200
C           14.63228770526375        3.34552562252405        0.58410044156386
C           14.60998623259076        4.80093942477573        0.85635306537469
C           13.88003555014111        5.30336416691873        1.93767855330913
C           13.85679528104386        6.66117180367818        2.19932349104646
C           14.56460549831862        7.52457670103576        1.36808902706796
N           14.53961145758531        8.95226944776018        1.63564627307408
O           13.88931560249526        9.33188407052039        2.57533074029903
O           15.17052807218371        9.66809925091077        0.90113532457363
C           15.29509700138155        7.04474104674833        0.28483478396424
C           15.31719698935164        5.68441933728232        0.03568621125962
C           13.43238073904235        2.70905339096342        0.28417416919460
C           12.17232665529913        3.38527732408215        0.16634358185427
C           11.23543747828553        2.43180159603644       -0.04585875863829
C           11.92475990636602        1.17683930346503       -0.06669597806611
N           13.27278585157057        1.36317346899658        0.09677560958635
H           10.20525585527097       -0.04729228888952       -0.20864290886831
H           10.19482212898213       -2.64419314035928       -0.22014732242303
H           12.10251147206231       -4.53645927425407       -0.44680870062429
H           15.87726759269983       -5.33300685329752        0.88897467874635
H           15.91174344962969       -7.77542355445171        0.44105179355694
H           13.60356609711767       -7.15857853504753       -3.11621153893619
H           13.57535214817565       -4.71480961235308       -2.67591235647514
H           17.33192456817803       -4.36653999161983       -1.13699832640469
H           19.20035185471211       -2.46845377752608       -0.73389913529047
H           19.11304887563803        2.44930822705577        1.02575336154205
H           17.19884792961232        4.32491987787175        1.31470436468441
H           13.34174716359894        4.61894322470346        2.58286387175187
H           13.29952066891605        7.05980174527312        3.03848790213803
H           15.83417445787163        7.73848880876594       -0.34905441120484
H           15.87312330674903        5.29873712685153       -0.81086751535804
H           12.03597071781110        4.45236304610712        0.23367887184269
H           10.17137465620152        2.54742396700267       -0.17629074025362
Fe          30.65432142272576        0.02945504063468        0.01496940753170
C           34.03937650800398        0.10104040380413       -0.13883280878861
C           33.38804952155253        1.24118151111205        0.28447195753850
C           34.06304446188304        2.43362604797287        0.70004988849023
C           33.10387926990947        3.35669487844769        0.94543398593337
C           31.84416995422848        2.72927866808853        0.66606305501996
N           32.03006336290907        1.42442958297059        0.29876258388204
C           30.61888959204175        3.38545398182773        0.71711879528837
C           30.60431003219438        4.83383015394325        1.02413453197212
C           29.94501693807044        5.30909274579944        2.16160960485855
C           29.92706134431610        6.66187054605992        2.44903918293607
C           30.56928982653336        7.54716948735137        1.58806190420406
N           30.54918963319004        8.96965042720337        1.88237949402227
O           31.12581235983825        9.70410865819917        1.12194471110282
O           29.95627765098586        9.32670508037949        2.86788984055024
C           31.22974035950393        7.09433728192692        0.44955279367873
C           31.24688666098361        5.73913925332588        0.17437663929980
C           29.40875088494182        2.74629498992754        0.48447342482510
C           28.13970300507800        3.41159239685225        0.47555698011789
C           27.19856914800453        2.45353900687347        0.29881721269041
N           29.24337678806210        1.39975021985484        0.26671611386201
C           27.89536850206323        1.21021094211574        0.19100543725523
C           27.24509439388276       -0.02583861920070        0.09143488528093
C           27.93166424302152       -1.23923248523676       -0.03789829774568
C           27.27537315961667       -2.50782783721105       -0.08996991089370
C           28.23846991584939       -3.43383120939815       -0.31419370399745
C           29.47936338004941       -2.72364565566202       -0.40933374795289
N           29.27767327690872       -1.38036641721693       -0.20170389481211
C           30.69508206591841       -3.32045928453150       -0.71374106095269
C           30.71749693248869       -4.77207675093244       -1.00565444817354
C           31.44702954855055       -5.64233731566119       -0.19023811370821
C           31.47047253714252       -6.99947515872020       -0.45532149265509
C           30.76349199290159       -7.48935670279449       -1.54966206442855
N           30.78924316003218       -8.91345272160527       -1.83577212837065
O           31.43752312474992       -9.61715393041064       -1.10462075284168
O           30.16045546856461       -9.30249289683739       -2.78614836418099
C           30.03336267214912       -6.63931057900950       -2.37527242305832
C           30.01087601204414       -5.28453644114039       -2.09753456895279
C           31.89486739753812       -2.61786088285319       -0.75469694232203
C           33.15455649370813       -3.20056017803717       -1.11872780055834
C           34.09148825634629       -2.23684905889582       -0.95956970938095
C           33.40258838043339       -1.06565228076360       -0.50758827321217
N           32.05462784882267       -1.29972062414696       -0.42466790720744
H           35.12243034162044        0.12200385775626       -0.18035689733061
H           35.13318021177861        2.53226188503854        0.78776176908218
H           33.22530656775043        4.37100647926363        1.28931729871369
H           29.45770037110373        4.60792298229034        2.82899568229124
H           29.42373070008411        7.03995237133007        3.33074983251746
H           31.71825062614218        7.80472189048588       -0.20650960091218
H           31.74710975144680        5.37411401698745       -0.71501546631936
H           27.99667084971556        4.47408346096144        0.58543673442235
H           26.12764767683752        2.56402729920605        0.24548196294005
H           26.21452678304219       -2.65503580816682        0.03251401830892
H           28.12879964631429       -4.50238532117312       -0.40191773942153
H           31.98483163010610       -5.24876553554529        0.66434823105818
H           32.02738933269431       -7.68298168403372        0.17421445442580
H           29.49486848497007       -7.04568186276400       -3.22296864293080
H           29.45515121038099       -4.61026785776270       -2.73861926056723
H           33.29061559857509       -4.21521832795353       -1.45601570520605
H           35.15535873177893       -2.29503109876584       -1.12511380780997
C           23.27887273353312       -0.03872230543115        0.15369470285491
C           22.04875243748583       -0.02332793861429        0.15623086856130
C           20.70798143921198       -0.01396195004679        0.14777340833985
C           19.48246762313038       -0.00435560248266        0.13163786219778
C           24.61962409459932       -0.04373893883084        0.14183508637641
C           25.84509020963521       -0.04515931743622        0.12208652091097
