248
 energy: -428.511777780392 gnorm: 0.000950308759 xtb: 6.5.1 (b24c23e)
Ni          37.98961469240557        0.40110385135857        0.26022442333264
C           34.59891150970881        0.33840398898183        0.18250781530597
C           35.26677094398298       -0.86415484940594        0.28720634062728
C           34.60706510737105       -2.12859008569286        0.40093179605025
C           35.57603425821327       -3.07406344397907        0.39154630682776
C           36.82674896040575       -2.38669555107989        0.25672031962966
N           36.62837393575334       -1.02818725623386        0.23356796009071
C           38.05171832754829       -3.02524458041796        0.11253882700749
C           38.08715643386886       -4.50577785240636        0.04447495209153
C           37.47215042304780       -5.18055472821052       -0.93802860561780
C           37.48604547086684       -6.68492369291170       -1.01809730255649
N           38.52886259284123       -7.25214521649201       -0.15891038512308
C           38.98680087206170       -6.56217347182957        0.93298605009041
C           38.83076800280022       -5.23285145710666        1.06338208614861
C           39.25034977738039       -2.32946300161780        0.02466592691569
C           40.51934800428692       -2.95877351943134       -0.18034945345388
C           41.45487839975073       -1.98026966653196       -0.13055338743411
N           39.40503703104438       -0.96815474735031        0.16040763258258
C           40.75514676285360       -0.75644344939394        0.09784571683052
C           41.40009312923871        0.46562321227248        0.30469012040289
C           40.70477054407873        1.66136226565908        0.50227313444976
C           41.35121277227658        2.90777199271933        0.76303418376560
C           40.37739480612498        3.84860499273618        0.80629365856738
C           39.13891478570192        3.17452680080299        0.56078030527201
N           39.34934772314287        1.82206917360142        0.41052859785540
C           37.91783195825168        3.82546473796939        0.44365364869216
C           37.89091641112627        5.30491092605752        0.53565785936823
C           37.21095516058104        5.93694770305793        1.50371762652135
C           37.15725845662883        7.43900577437444        1.60669970110638
N           38.20586807039479        8.06412495144873        0.79607318763910
C           38.73309532093719        7.41206265763706       -0.28793497648735
C           38.63999904113069        6.07955004108937       -0.44340498261153
C           36.72480140882180        3.14358114047962        0.24062516297375
C           35.45697978658165        3.78617340891178        0.05434661596579
C           34.52606795673016        2.80575436294382       -0.01668993572874
C           35.22631911195545        1.56511780189180        0.11538309117378
N           36.57671175906902        1.77861352452433        0.23758760674663
H           33.51557268020947        0.31848193426943        0.15544631701216
H           33.53893921420592       -2.25581484280930        0.47928373879712
H           35.46722769334858       -4.14350490054877        0.47068741272883
H           36.91905211769426       -4.67311075496228       -1.71978779309349
H           37.68401130702080       -7.00691146067630       -2.04947482722675
H           36.49737149055575       -7.09147748623018       -0.73355316138967
H           38.47904445853832       -8.25619048108863       -0.06469254419639
H           39.55654051441417       -7.15653688216175        1.64015583856494
H           39.24338478362093       -4.69636959442411        1.90588609917504
H           40.66452261751782       -4.01447110329323       -0.34155287534444
H           42.52467748562127       -2.06362951103892       -0.23475629617740
H           42.41435392636190        3.03045713298108        0.89343252792769
H           40.47781050512216        4.90644923170915        0.98650962305078
H           36.65012156558203        5.39377189134719        2.25538508743195
H           37.30258629749450        7.75219929923361        2.64947618501051
H           36.16321627059202        7.80773542357532        1.29095555929055
H           38.11531857124083        9.06641120357950        0.71397850212345
H           39.30192931324334        8.04170330794626       -0.96465184110947
H           39.10564337425745        5.57520139638245       -1.27808270854796
H           35.31197010663169        4.85191755048295       -0.01612538652515
H           33.45905214641467        2.89453899728043       -0.14633798387937
Ni          85.86096014714310        0.29702774328279        0.21866399944134
C           89.24176841585543        0.46083617119279        0.03799154699516
C           88.55778479194834        1.59831072342922        0.41538829056269
C           89.19730667306420        2.82508057135479        0.78004957843639
C           88.21101902751288        3.72320478952736        1.01236857428358
C           86.96935687373224        3.05061844463851        0.76564715334036
N           87.19259316702252        1.73445119098413        0.44323285849556
C           85.72956637828879        3.67663604024059        0.77389838157836
C           85.65716184005146        5.13461585065722        1.03127610752273
C           86.25165668123333        6.02612911065359        0.22460714873256
C           86.19649394714490        7.51005554006935        0.47936828481024
N           85.13721644051589        7.84517297914774        1.43487173866688
C           84.69917284228633        6.91915466979863        2.34526768752240
C           84.89368067898909        5.59876282483698        2.18094741988817
C           84.54637522904423        2.98987257342769        0.53293389049800
C           83.26650579110049        3.62305446563283        0.43761744238887
C           82.35273525055428        2.63729282708142        0.26795090273338
N           84.42012141251048        1.62706954502563        0.38726813094526
C           83.07567327281571        1.40550196720618        0.26261807938779
C           82.45547670965897        0.15310993593603        0.24962249740767
C           83.17627732496912       -1.04369984935275        0.26175957223948
C           82.56021546072485       -2.32995451236684        0.33327862424079
C           83.55516364865316       -3.24354599761007        0.22648700919535
C           84.77536705834923       -2.51126047781404        0.07234366633944
N           84.53378931247438       -1.15726239036267        0.13809264628278
C           86.00530106799100       -3.10331121788357       -0.18390453194872
C           86.06778077216829       -4.57613451191324       -0.33879214289522
C           86.80573759827776       -5.33873319724550        0.48155979640660
C           86.89771225890330       -6.83483756602207        0.33027704377055
N           85.82288175253123       -7.34837765473256       -0.52327383012034
C           85.23431844019100       -6.54301708007996       -1.46345450194829
C           85.29258594517620       -5.20102542683724       -1.40115582589169
C           87.17464200957167       -2.36493087239288       -0.31820715030009
C           88.44379167013497       -2.93000077646062       -0.67172115074091
C           89.35016826773125       -1.92559942701530       -0.61848300637226
C           88.63436774701124       -0.74697255278093       -0.23678931860092
N           87.29594896518687       -1.01627592879910       -0.09278340593431
H           90.32218763438360        0.51473633620708       -0.02929478196430
H           90.26500632320881        2.96055732688761        0.85003749902716
H           88.30301615306321        4.75160327913777        1.32183054275347
H           86.81599810701555        5.71957132615875       -0.64836144721115
H           85.99111763566160        8.04696062136908       -0.45663756696525
H           87.17318293548082        7.86965692455495        0.85418991332973
H           85.15875637201138        8.80470624206780        1.74843831985842
H           84.11209890031047        7.32693826071150        3.16197467030502
H           84.49566330150239        4.87844164320651        2.88138349421528
H           83.10007013167319        4.68654267782793        0.49146467099038
H           81.28304060102043        2.72048223197084        0.16289282774314
H           81.50138322996366       -2.49532334924499        0.45153547163570
H           83.47987926469652       -4.31854564374689        0.24474757397618
H           87.38857845957980       -4.91058174684181        1.28874480531369
H           86.81261136553708       -7.32052038534759        1.31173459700863
H           87.88224108092300       -7.11601188566052       -0.08867854740095
H           85.93071605191766       -8.32066295724825       -0.77362988157435
H           84.64878208666410       -7.06915515059243       -2.21061618463579
H           84.78054318117368       -4.58022659047269       -2.12248766513780
H           88.60589337039430       -3.96343162328294       -0.93168760023956
H           90.41058081505062       -1.96091338381331       -0.81212088252035
C           46.60069097327963        0.55141828185280        0.39024337781676
C           45.37363223404898        0.52937641837741        0.36325759628465
C           44.02843155771234        0.50708011932896        0.33896866345051
C           42.80555911234821        0.49055514557132        0.32246274501117
C           47.94509942583054        0.58689573189226        0.42939685762137
C           49.16693260143050        0.62709314321209        0.47514424400191
C           62.54730673009754        0.20615488244572        0.21257014617766
C           61.31910182378908        0.21948844086803        0.21726742929944
C           59.97642093110152        0.27509805957232        0.24753757841257
C           58.75701148071796        0.35871746972434        0.30824844293992
C           63.89090580456820        0.23536822427017        0.24224318366070
C           65.11153126486903        0.30194110915066        0.29839313987336
C           78.48203542289835        0.09977280908723        0.27317059160062
C           77.25531287760205        0.13923202940168        0.30367481990644
C           75.91264281881246        0.21686585124145        0.34538553039383
C           74.69446786395120        0.31374805854725        0.40122169027707
C           79.82759881994149        0.09067480151639        0.25481284213300
C           81.05059080308718        0.10304734179109        0.25226102777018
Ni          53.97339389498548        0.76770332575128        0.59843122163490
C           50.56928147018660        0.68813048982562        0.53032344147907
C           51.23392445548549        1.60806027975768       -0.28802585051853
C           50.56159832883243        2.57367474005390       -1.09625774642665
C           51.52195399613887        3.26012548775462       -1.76299379940918
C           52.77694104392372        2.68316711423487       -1.38946440069003
N           52.58840120195611        1.69907340895793       -0.44389452800990
C           53.98825669764248        2.99139762223756       -1.99368226992424
C           54.02291289920146        4.00057478511282       -3.07812017967628
C           53.33771984102594        3.84004722403068       -4.22021075989310
C           53.40968237397578        4.83345542326301       -5.34985692126156
N           53.95193005381458        6.11561433028900       -4.89286743050319
C           54.77940553148291        6.17462123728852       -3.80199874740850
C           54.83377417710657        5.19366706977952       -2.88378467072533
C           55.17613740022922        2.35568082682426       -1.65283368555805
C           56.40064661911592        2.51535306797042       -2.37457955117141
C           57.33392350159277        1.76923901007601       -1.73389141596621
N           55.35329879842594        1.50047015961947       -0.59032358168952
C           56.68123278329275        1.17307001251109       -0.61246312587209
C           57.36245464658464        0.48782868242078        0.39854251305632
C           56.71598170631941        0.00600029151861        1.54256115559069
C           57.40812322978364       -0.51861394180643        2.67508477754790
C           56.46152118263407       -0.89918875479319        3.56807135787190
C           55.19203081282327       -0.64391657715098        2.95928707787252
N           55.36372552039222       -0.04026981739275        1.73251718123909
C           53.97564879610420       -1.06236056409648        3.48258408318708
C           53.95360421619320       -1.80157419357146        4.76643989177074
C           54.59634882231988       -2.96790666788237        4.92782630002001
C           54.59339026479659       -3.71827046942760        6.23423282971361
N           53.52654094540134       -3.24059708133379        7.11760179088351
C           53.03186831949314       -1.96907151713363        6.99170284072412
C           53.18117606516593       -1.24529946574427        5.86817204048014
C           52.76876168044109       -0.85173792204138        2.82543006768195
C           51.52516922537371       -1.42425188096595        3.24036410326112
C           50.57980063819500       -0.97737397462031        2.37783520296700
C           51.24472663791957       -0.11691828529643        1.45203487761443
N           52.58900742841613       -0.07549614297242        1.70451889583513
H           49.49231095785228        2.70758635791005       -1.12845903300976
H           51.40010682869030        4.07835941302414       -2.45370764790242
H           52.75523754722069        2.94737214916808       -4.41605325533886
H           54.02811857864236        4.43096257831436       -6.17422034844746
H           52.40594506946449        5.01521039860392       -5.75711748477158
H           54.15146387726452        6.76443652647929       -5.64045952939515
H           55.32150593091595        7.10851869410354       -3.69302254181214
H           55.43647271974581        5.28879800468071       -1.99181334063454
H           56.51742890683482        3.11394977761634       -3.26349389742765
H           58.37621798062783        1.63866283261431       -1.97660744788527
H           58.48101518528124       -0.56870887606614        2.76847575716318
H           56.60303179273996       -1.32053327176373        4.54978190238975
H           55.16377884913612       -3.42398910056709        4.12510977388745
H           55.57458442295246       -3.61594086535226        6.73470628637230
H           54.43134400433023       -4.78969986556798        6.05498664569421
H           53.57528420011251       -3.61142101709026        8.05542403123698
H           52.44070589486267       -1.62555863954917        7.83459417616285
H           52.73875693451019       -0.26465297002852        5.76585689713874
H           51.40382843465483       -2.09013812190413        4.07918226796583
H           49.52236989008561       -1.18730475691423        2.36782314045086
Ni          69.89970134631585        0.66543095228236        0.59822327501939
C           66.50736824667068        0.41719087357864        0.39218190556516
C           67.16714111016559        1.29606803149667       -0.47423079939404
C           66.48323181630374        2.16036822911534       -1.38150277377270
C           67.43269410467050        2.89974677512126       -2.00539706131082
C           68.69771843563358        2.45083502425844       -1.51014073490053
N           68.51822979977482        1.48639162779877       -0.54255661966082
C           69.92263603837219        2.86676973929592       -2.01298786548244
C           69.95910016321692        3.88516511266700       -3.08950243334579
C           69.40635745907242        3.67138399646487       -4.29270171860551
C           69.48604583861476        4.68114726206772       -5.40740017562579
N           69.85643453367625        6.00417425143952       -4.89797639844285
C           70.56553395616461        6.13052823178584       -3.73207808039689
C           70.62645846314000        5.14919952117005       -2.81471983347749
C           71.12937410677972        2.32509568179851       -1.58692395203919
C           72.38100626282667        2.57769122251481       -2.23174403735495
C           73.31424820065170        1.84353148340603       -1.57796070753651
N           71.29530668155861        1.44443359805448       -0.54382298620240
C           72.63505851032949        1.16887166412107       -0.51825582972095
C           73.29742968386851        0.44306338214184        0.47600437671942
C           72.63387788422875       -0.07170583363994        1.59482272798507
C           73.31395445731295       -0.60622805805642        2.73029520395301
C           72.35950226480279       -0.94995031655085        3.62947286056599
C           71.09609816420631       -0.66951186947524        3.01928903222442
N           71.28023995244489       -0.09391588635272        1.78130849229156
C           69.87034562625605       -1.02641238914737        3.56540774387000
C           69.82875179909450       -1.68608394566851        4.89237983705373
C           70.41046692370972       -2.87294798959204        5.11901017018029
C           70.38318144945183       -3.54183593120377        6.46881742053235
N           69.35924036095885       -2.95015849350233        7.33409619555124
C           68.92885838581611       -1.66525151788354        7.13247900614782
C           69.09985522503126       -1.02233301168871        5.96376858688220
C           68.66914818467455       -0.83897782110838        2.89242710311547
C           67.42121564963780       -1.38015465765088        3.33534506441662
C           66.49304540558390       -1.03418994064992        2.41027997563130
C           67.17091301561352       -0.25905895841220        1.42074641001586
N           68.50569720105877       -0.16571547055291        1.70392853215446
H           65.41238093916007        2.20097140113009       -1.49965058578742
H           67.29759388512834        3.67513786733245       -2.74150885916468
H           68.93719690260988        2.72802009836790       -4.54657550690617
H           70.21441109217064        4.35035189404604       -6.17160711805843
H           68.51147259060721        4.77019907466853       -5.90620176030514
H           70.06398861140448        6.67689006752865       -5.62189202628071
H           71.00148107051213        7.11107061366466       -3.56962359755100
H           71.12914416544773        5.29128167606371       -1.86867005712193
H           72.51376489467917        3.22090217018343       -3.08659622031170
H           74.37217166158382        1.77012677453025       -1.77215911278872
H           74.38543823727483       -0.68053668687976        2.82372157872931
H           72.49160744556139       -1.36321343728277        4.61590012880271
H           70.94363992134097       -3.40661935168839        4.34099581054620
H           71.37586367672253       -3.46778226105921        6.95112337635065
H           70.15645577571688       -4.61078409683412        6.35666509542926
H           69.40345864847841       -3.26282256058463        8.29305771590547
H           68.36777003743411       -1.23900941072826        7.95797907312531
H           68.70571354300694       -0.02905615776033        5.80291217804164
H           67.28705129114411       -1.96284904516311        4.23213040301907
H           65.43908112153726       -1.26046646582827        2.39487019553046
