254
 energy: -461.502268294685 gnorm: 0.000895946471 xtb: 6.5.1 (b24c23e)
Fe          43.02085128804255        0.02847653260909        0.04349312099797
C           39.63531139564821        0.03794054593156        0.15223679126538
C           40.28518848439580        1.25465983897207        0.18504542536301
C           39.61092307590054        2.51692694693625        0.22943754465787
C           40.56906092307269        3.46425034961210        0.36230180570447
C           41.82724099760152        2.77686837754032        0.41515563410487
N           41.64240045305426        1.43021248714988        0.25765266237756
C           43.04680105686337        3.39912042420498        0.66194667040099
C           43.05795534853429        4.85519213263773        0.93213151322983
C           42.36701591888845        5.37746694610310        2.02801674479967
C           42.37880395406159        6.73651291751166        2.28541276012077
C           43.08048889429648        7.60335940207983        1.44231502151775
C           43.09208911234036        9.00296979636916        1.70227733320037
N           43.10008437669243       10.13434267284005        1.91211895081670
C           43.77124965129388        7.08576739776382        0.34255126962396
C           43.76095180696060        5.72480850661095        0.09516299001964
C           44.25272310567020        2.71192205405990        0.67716642932334
C           45.51386620891130        3.31042175018568        1.00042508000652
C           46.45783594001482        2.35595133789740        0.81715612990684
N           44.42499084451996        1.38975962347734        0.34385160756633
C           45.77090268951056        1.17771919232508        0.38933685072645
C           46.42812335576783        0.00836421025133       -0.01355642479069
C           45.74518784660690       -1.14736875382882       -0.41331607070711
C           46.40406973942272       -2.32455550134875       -0.88564989003021
C           45.44112045896743       -3.25862637134379       -1.07524847950519
C           44.19766601803185       -2.65171928982205       -0.70249145856798
N           44.39768506657049       -1.34002113658680       -0.34271358996241
C           42.98602202273445       -3.32667732855375       -0.65327414194216
C           42.96538979111666       -4.77472309478424       -0.96318209104756
C           42.21164809903090       -5.25656935517564       -2.03598581212233
C           42.19069971907161       -6.60773126721220       -2.33145812377494
C           42.92176940298724       -7.50732527174160       -1.54982014749582
C           42.89957833686406       -8.89918001667524       -1.84799545162150
N           42.88053477696184      -10.02366594343562       -2.09176773217166
C           43.67440180133197       -7.03040811423382       -0.47254432934784
C           43.69640864745762       -5.67704444369202       -0.18711680054128
C           41.78788860146923       -2.70251508524697       -0.32003722905241
C           40.53284161360089       -3.38593173437537       -0.19370176705211
C           39.59317980763856       -2.43915050200123        0.03817099576598
C           40.27564091563143       -1.18063935665859        0.06065388675339
N           41.62268170385984       -1.35952515672197       -0.11893935179158
H           38.55198285958192        0.04008145804865        0.19359772092317
H           38.54178355461406        2.64200426442508        0.16486252333711
H           40.44751670707484        4.53383594240489        0.41805976900371
H           41.83173646567595        4.70685346611523        2.69065268774198
H           41.84584261066204        7.13390944171387        3.14124274902787
H           44.31346695521621        7.75531698296582       -0.31480015825063
H           44.28874316445762        5.32784045253163       -0.76460026044716
H           45.64882485065630        4.32740509908532        1.33080495960655
H           47.52485813731635        2.42908324365370        0.95247516050061
H           47.46648447952672       -2.40969324982865       -1.04768062097535
H           45.55271278209486       -4.26774255036373       -1.43695318796355
H           41.65217341467974       -4.56034600242996       -2.65048524170196
H           41.60887814932911       -6.97363542456074       -3.16931979306648
H           44.23881583224738       -7.72556040790562        0.13787526339185
H           44.27162087010596       -5.31211955415772        0.65625998876897
H           40.40146789239571       -4.45317819328325       -0.26891100484408
H           38.53129995658365       -2.56189435540636        0.18034649850461
Fe          98.68537715930503       -0.00160124078219        0.02002209285110
C          102.07339854279245       -0.00313189114802        0.14773239244408
C          101.42154105550098       -1.21386005725002        0.26011205593436
C          102.09518573171441       -2.47186673948074        0.37588760281948
C          101.13650671453128       -3.40981248890684        0.56023533808297
C           99.87849287530547       -2.72031461654453        0.57191605900282
N          100.06458709114860       -1.38258369534882        0.34987865319203
C           98.65761644216194       -3.33181212920947        0.83449261512164
C           98.64570279570125       -4.77455744295728        1.17021793059110
C           99.31476414995919       -5.24218962261747        2.30363135871785
C           99.30152095531470       -6.58776285088364        2.62417193938771
C           98.62049754040936       -7.49581474701100        1.80793177141033
C           98.60532348275348       -8.88147125024458        2.13401466887761
N           98.59795433008733      -10.00137490037772        2.39871098893431
C           97.95268656178074       -7.03308857342851        0.67020602659920
C           97.96433671451666       -5.68515842466772        0.35950959947130
C           97.45010735814421       -2.64781353039226        0.80283642651817
C           96.18645119582821       -3.24013357165346        1.12743281354344
C           95.24214417349583       -2.29643739961586        0.89799970894120
N           97.27949980331751       -1.33716393135319        0.42583948725956
C           95.93123158123549       -1.12974108536832        0.44288724677081
C           95.27497179106894        0.02951380150252        0.01504558113884
C           95.95607164109302        1.17476565429848       -0.41252682107726
C           95.29460993779472        2.33832707191410       -0.91380318144755
C           96.25791739876774        3.26139841130798       -1.14899923914883
C           97.50459705250812        2.66197842159945       -0.77564643816047
N           97.30519316250439        1.36745197838315       -0.35885514780533
C           98.72124478756989        3.32998907266721       -0.78608982723954
C           98.74268373082130        4.76049466915032       -1.17008938377456
C           99.46389353992188        5.17915087672796       -2.29065013012734
C           99.48337516748306        6.51261008193994       -2.65787426403368
C           98.78347105488452        7.45778235344761       -1.90196124980929
C           98.80294547316099        8.83125314435406       -2.27587590677074
N           98.82013908229889        9.94161111887052       -2.57785004292164
C           98.06403344940226        7.04432394231482       -0.77681802053228
C           98.04331945140116        5.70809313481258       -0.41937452222183
C           99.92290601414449        2.71481715131358       -0.45219311726026
C          101.18380084978315        3.39666602319503       -0.39248317696413
C          102.12305672979994        2.45976354941631       -0.12340164149443
C          101.43504341794518        1.20892453149087       -0.01287370607854
N          100.08496035020237        1.38484662134222       -0.17285951452847
H          103.15705447749957       -0.00548952686409        0.17871548958569
H          103.16423904721475       -2.60089386953464        0.31786648739039
H          101.25715358756051       -4.47480816055721        0.67493867630826
H           99.83403242356476       -4.53910244778560        2.94501083009409
H           99.81698822805561       -6.94254030781576        3.50896171346018
H           97.42683965863013       -7.73486112874668        0.03348498487338
H           97.45410563018420       -5.33100431362921       -0.52906964134323
H           96.04992290865901       -4.24648634853075        1.48821822273902
H           94.17343700435099       -2.36927182804294        1.01939493373164
H           94.23038761148393        2.42168719859511       -1.06450193055625
H           96.14469448187559        4.25756392576555       -1.54448752951240
H           99.99874144170658        4.44710786194361       -2.88513240807122
H          100.03944963146124        6.82923011598128       -3.53249266182657
H           97.52389165432815        7.77506159324111       -0.18632203800160
H           97.49350014878773        5.39253879466805        0.46007856791889
H          101.31879478323437        4.45666771928232       -0.53421506864345
H          103.18832126194332        2.58379091294201       -0.01069438127997
C           47.82803865531542       -0.00203084379902       -0.02535799170904
C           49.05447088494770       -0.01055306939693       -0.02910762008449
C           50.39340622169694       -0.01538635647168       -0.03529115930178
C           51.62652141511200       -0.01643598377090       -0.03925508537996
C           52.96049620714027       -0.01563667339901       -0.04154229660074
C           54.19368000688556       -0.01375152728196       -0.04179822048941
C           55.53230065598124       -0.01133509793790       -0.04020606053763
C           56.75933101008437       -0.00676906664869       -0.03982792226822
C           66.38053725081417        0.01334109789201        0.01220424217248
C           67.60754161893855        0.01452624300024        0.01956166971244
C           68.94593016141384        0.01581400404868        0.02506331589848
C           70.17925876775465        0.01608925422681        0.02762135113105
C           71.51293527845590        0.01777306588742        0.02843933385503
C           72.74623849732261        0.01978908813727        0.02692578177009
C           74.08471969090870        0.02385498815245        0.02288044724467
C           75.31165279491698        0.02687886799777        0.01640555419518
C           84.94027974587567        0.05681063853143       -0.01546534623766
C           86.16626054067979        0.05844810550204       -0.01469555629270
C           87.50665617431228        0.05971376913612       -0.01314214569041
C           88.73875878760613        0.05991947066358       -0.01172394773190
C           90.07454549000074        0.05768995105797       -0.00890815149939
C           91.30651296674982        0.05461846759688       -0.00541481112266
C           92.64726856365928        0.04837411939600        0.00012608742632
C           93.87282936785654        0.04032963827858        0.00543119311594
Fe          61.57020950344730        0.00921602835836       -0.02835687570295
C           58.15813429354759       -0.00167722213065       -0.03841425150396
C           58.83535405373093       -1.19999492209492       -0.30229300861392
C           58.17208188288871       -2.44342756263977       -0.53774244671654
C           59.13093234893807       -3.33199911840065       -0.89650936090415
C           60.37465937018011       -2.62197320871208       -0.88692979834705
N           60.18152318999785       -1.32707655053744       -0.47302212353382
C           61.58379287107167       -3.15958305890772       -1.31228213602092
C           61.58847832361290       -4.53005739075633       -1.87292487607637
C           60.84378302172482       -4.82869185221528       -3.01630141034968
C           60.85022630802098       -6.10620200864639       -3.54674718589237
C           61.59947002987695       -7.11535584874136       -2.93456774943585
C           61.60590334262995       -8.43239055103251       -3.47526621669091
N           61.60999158476611       -9.49587951673943       -3.91461736072898
C           62.34245855344608       -6.82239432738556       -1.78715463365934
C           62.33787619157627       -5.54085345816886       -1.26655384599690
C           62.78830531896858       -2.47127244406548       -1.23419538420736
C           64.03939062915320       -2.98205247081910       -1.70900064806769
C           64.99119585110738       -2.09314881567569       -1.33312801212551
N           62.97065522781056       -1.25370017485119       -0.62524017275914
C           64.31611857233688       -1.03948963597548       -0.64332356056335
C           64.98194895689269        0.01262915052554        0.00031826930887
C           64.30318588704169        1.06581709149280        0.62830830609133
C           64.96454917050850        2.12594053135813        1.32151245854022
C           64.00548270897120        3.01810939209198        1.67027157345342
C           62.76362603378509        2.50141535474272        1.17801076541368
N           62.95801912179885        1.27878518676930        0.58342474267557
C           61.55617351995356        3.18702913531139        1.23302726605454
C           61.55088167022150        4.56368254857699        1.77838999966217
C           60.79380152775060        4.87379122538746        2.91049384113757
C           60.79119505685989        6.15762446209954        3.42550099147393
C           61.54380362592526        7.16156048816404        2.80893886307287
C           61.54087821219130        8.48484448322733        3.33419209502099
N           61.53846894611596        9.55430465966137        3.75878242930094
C           62.29976154250884        6.85692655636347        1.67307120844318
C           62.30416937887121        5.56918294703393        1.16800292111558
C           60.35349619374134        2.63974571544485        0.80203846201308
C           59.10516513042504        3.34176061989374        0.79942415913305
C           58.15343947361584        2.44318364718143        0.44664022205556
C           58.82593211391954        1.20234854965268        0.22411864389271
N           60.17046322847087        1.33987392838091        0.39872714034793
H           57.11005381021076       -2.60081145820735       -0.44050816520388
H           59.01574174739295       -4.37498045554988       -1.14238953784068
H           60.27069292600424       -4.04560009915603       -3.49966467218059
H           60.27587249278891       -6.32907590678199       -4.43826385717037
H           62.92089136219889       -7.60337999253823       -1.30774651079261
H           62.90622843422683       -5.31959979862698       -0.37028004715344
H           64.16416287084665       -3.89982722471143       -2.26003052462487
H           66.05542286185870       -2.13477849410713       -1.49992517491918
H           66.02546147535894        2.16984217477556        1.50773586699163
H           64.11934994441567        3.94142447777250        2.21438141252278
H           60.21816220918878        4.09490970649246        3.39760110644252
H           60.20715182197328        6.38951753455023        4.30838010354222
H           62.88120991178966        7.63368532636345        1.19045555442715
H           62.88283459054635        5.33857918872948        0.28072590484720
H           58.98208546584177        4.38630341965172        1.03459993836746
H           57.09074457079267        2.59255659189473        0.34419700131640
Fe          80.12492776714379        0.04656545855589       -0.01098480552451
C           76.71057565314928        0.03255970503906        0.00838664575861
C           77.38539546844686       -1.15950643892409       -0.28638378812942
C           76.71734482196274       -2.39675203377020       -0.54162843540820
C           77.67369672715735       -3.28513403782854       -0.90595473037410
C           78.92102966107788       -2.58132550520486       -0.88045773330598
N           78.73137504956470       -1.28899028362699       -0.45503179672572
C           80.13018095328556       -3.12575971470116       -1.29337900647407
C           80.13206046640630       -4.49772182926493       -1.85153631519698
C           79.40686075571749       -4.79094937078034       -3.00865984161156
C           79.40935595833051       -6.06989548427234       -3.53571827779745
C           80.13504871826075       -7.08569394289740       -2.90642641777151
C           80.13722793303411       -8.40391401123141       -3.44423454049585
N           80.13767950408467       -9.46991936303520       -3.87744377704933
C           80.85891740356790       -6.79788788658502       -1.74556011758457
C           80.85839127744430       -5.51494481199711       -1.22827223802863
C           81.33854549552886       -2.44450212764110       -1.20601643207269
C           82.58898353252201       -2.96749434740081       -1.66875110963148
C           83.54303095434213       -2.07700794264011       -1.30312814477454
N           81.52317754830250       -1.22114079986061       -0.61076761172976
C           82.87023857205894       -1.01046297878004       -0.63119620930383
C           83.53926959225856        0.05458005549204       -0.01566997647829
C           82.86672549511223        1.11858610856543        0.59766483820295
C           83.53629806128022        2.19206798147808        1.26175523886986
C           82.57949929626069        3.08213160222795        1.62115109520727
C           81.33037158539942        2.55077464095100        1.16450185460473
N           81.51879999009796        1.32419243659029        0.57739380024481
C           80.11871497348771        3.22609710483619        1.25343758671885
C           80.11716628326479        4.60272219359746        1.79995193376925
C           79.39921753211030        4.90260439904633        2.95987656575230
C           79.39886893468149        6.18628864057060        3.47531194465844
C           80.11447747138594        7.20009879284770        2.83146464424433
C           80.11304850705005        8.52326944916103        3.35696830501709
N           80.11179985678096        9.59250996639862        3.78214605442294
C           80.83151537218589        6.90547420978896        1.66805527826289
C           80.83390387995281        5.61791401048077        1.16240285539985
C           78.90974043973776        2.67021340578346        0.85576763746906
C           77.65693982955288        3.36380147474086        0.89185192506988
C           76.70344865000362        2.46440581211638        0.54762150849088
C           77.37872954858356        1.23122027268570        0.29176265059312
N           78.72556799305528        1.37327416797760        0.44173998664181
H           75.65415909236144       -2.55036049497037       -0.45119736227568
H           77.55504463474327       -4.32448303001865       -1.16518394954768
H           78.85184831548843       -4.00286771044276       -3.50484177058647
H           78.85010462584931       -6.28881541388069       -4.43776139325186
H           81.41929270371807       -7.58391201287545       -1.25311040101926
H           81.41200619799260       -5.29739508464882       -0.32192668785289
H           82.71158993724981       -3.89371371462904       -2.20593716273290
H           84.60751190843547       -2.12479733838420       -1.46654663588156
H           84.60076745462078        2.24488376590369        1.42368370807536
H           82.69927778206001        4.01289574350803        2.15107679211411
H           78.85224292019926        4.11617219409253        3.46746378381926
H           78.84515902313728        6.41046014742668        4.37948152574874
H           81.38427044477712        7.68985519971170        1.16450084996155
H           81.38226470023994        5.39487022108197        0.25419725351293
H           77.53274939931892        4.40410227007218        1.14456680472814
H           75.63787787588488        2.60832263098933        0.47032058691512
