114
 energy: -201.938924088648 gnorm: 0.000573938440 xtb: 6.5.1 (b24c23e)
Fe          11.10273881983164       -0.05808880264074       -0.06343742222348
C            7.71224541444553       -0.07230188733632       -0.12409931722014
C            8.36010571203839       -1.28886896316350       -0.07006263727890
C            7.67591330212686       -2.54630946182531       -0.03790663758432
C            8.62460347684791       -3.49979180705942        0.11261263596485
C            9.88890274540467       -2.82332270449101        0.15697143820928
N            9.71362543508875       -1.47100644027609        0.04095655651264
C           11.10519823573450       -3.46540017714626        0.36070098284325
C           11.10545047714968       -4.93712924260323        0.53739998463676
C           11.48294397808141       -5.51950314538482        1.74614370597400
C           11.46027150210690       -6.90033106577151        1.86555118812343
N           11.09885458319024       -7.70721262261177        0.87329877339903
C           10.74235798611268       -7.15935791666936       -0.28390194984937
C           10.72682210466763       -5.79004211618025       -0.49814391684367
C           12.31933630068038       -2.79543902536978        0.38877850577381
C           13.58546788556137       -3.45101842315211        0.53030368702423
C           14.53662952487236       -2.49623490850595        0.39581647546102
N           12.49910572930235       -1.44690343361719        0.18874577425497
C           13.84960663525572       -1.26232433510089        0.17508813466249
C           14.51281456707201       -0.05041668350396       -0.05371298553183
C           13.84115598116675        1.16376431980467       -0.24242027382514
C           14.51889594857801        2.40050906335448       -0.47542073414305
C           13.56562163403253        3.36140127916381       -0.52693268216780
C           12.30779650985629        2.70634316368372       -0.32406022283580
N           12.49284959294190        1.35291892223138       -0.17169001518057
C           11.08899720162388        3.36885014894977       -0.29033649991923
C           11.08465983802097        4.84534928262121       -0.40719341331435
C           10.47084396605635        5.48327630136962       -1.48448239902083
C           10.49687556512698        6.86719186694883       -1.55385288397405
N           11.07918721069530        7.62759144446775       -0.63234726855680
C           11.66497456900436        7.02727891361440        0.39861255531417
C           11.69695468690432        5.65015125321385        0.55255713136229
C            9.87132829272334        2.70713742407877       -0.17756119371480
C            8.60026192207436        3.37114170305322       -0.13799853879599
C            7.65448420114656        2.40325878730237       -0.11080598474769
C            8.34903574132714        1.15122631250817       -0.11466242664916
N            9.70491136494061        1.34948894375144       -0.12483046989750
H            6.62860299103052       -0.07781999877401       -0.15925014970540
H            6.60618568113025       -2.66241689341243       -0.10950465784304
H            8.49246148615439       -4.56616477487758        0.19673273778958
H           11.77583748753114       -4.89948107334300        2.58494202615644
H           11.74450301503487       -7.37814231545474        2.79852201027900
H           10.45551715481307       -7.84489953141831       -1.07592252772805
H           10.43829795053279       -5.38748802904882       -1.46174255653109
H           13.71846815072789       -4.50824063798868        0.69180472442879
H           15.60871718334315       -2.60314676607944        0.43319384005003
H           15.58646581975038        2.50419709218708       -0.58329662264321
H           13.69137930136516        4.41795119911299       -0.69822258223000
H            9.99420433732943        4.90276750048456       -2.26530944438110
H           10.02927984561273        7.38662580962252       -2.38516237450335
H           12.13103573392413        7.67563946589167        1.13478297205540
H           12.17817423471307        5.20447601726443        1.41490658005548
H            8.46264519259380        4.44011779037859       -0.12979289302303
H            6.58140141614134        2.50712232845731       -0.08540270957933
Fe          27.08743782633722        0.03676885181284       -0.07623674075519
C           30.47807041006639        0.03250783536505       -0.13748983043140
C           29.83039477031027        1.21220761827303       -0.43996992851193
C           30.51470487763101        2.42472998688461       -0.77438686761512
C           29.56602235613233        3.38070564523131       -0.90825389787638
C           28.30161610562781        2.74625100158617       -0.66995477756300
N           28.47681725809826        1.41865967597312       -0.38764340546827
C           27.08528826981057        3.41974258682738       -0.66266931135175
C           27.08503001223312        4.87915145395719       -0.92228919238588
C           26.70779245350422        5.78833723524447        0.06452510964849
C           26.72997418374823        7.14404533984023       -0.22356458541260
N           27.09069633555970        7.62690170448414       -1.40804580347777
C           27.44713466980922        6.76575891872780       -2.35552129107409
C           27.46314516954733        5.39342584926596       -2.16151496353153
C           25.87108833467338        2.78705834702562       -0.44089062515894
C           24.60505178872113        3.45569403976993       -0.49567519231699
C           23.65378433789584        2.50333822529980       -0.34569303326121
N           25.69114138049248        1.43872295365507       -0.23965421018854
C           24.34060896123942        1.25841117646506       -0.19829234304243
C           23.67716764555503        0.03241687162506       -0.06531505590826
C           24.34865988982925       -1.18432990845014        0.10666630753158
C           23.67085551119920       -2.43544312275690        0.24247496716866
C           24.62412532774137       -3.37004703969328        0.47159510108778
C           25.88196015145361       -2.68432803907213        0.47582266854569
N           25.69694277809793       -1.34488536402630        0.22905509548801
C           27.10066547862371       -3.30831773321092        0.70126081451688
C           27.10505469737621       -4.75518391553766        1.01799172877118
C           27.71933551067153       -5.67815229461810        0.17239642631812
C           27.69356883685408       -7.02263265937389        0.50769256749416
N           27.11094556785451       -7.48297323613146        1.61001690812154
C           26.52467552256562       -6.60942155457673        2.42217918673711
C           26.49252424463062       -5.24689452220709        2.16982677136186
C           28.31830251369661       -2.64216839760275        0.61836993914505
C           29.58914298967945       -3.26589118951366        0.85073113830626
C           30.53515926885795       -2.33197308721175        0.59600313348093
C           29.84095919336292       -1.13525973425055        0.22726063190640
N           28.48504293352920       -1.32791623801109        0.27395104140179
H           31.56172804810048        0.02745820183643       -0.17218509361842
H           31.58450395193128        2.51509724590837       -0.87584746018207
H           29.69817297196140        4.42551327654653       -1.13763493304432
H           26.41539654620718        5.43948315840004        1.04768307816084
H           26.44584972810452        7.87288285110934        0.52982312537361
H           27.73334161568838        7.19087174999594       -3.31307509249713
H           27.75161519102390        4.72767042646776       -2.96611076947391
H           24.47220037698113        4.51417152222200       -0.64887407378681
H           22.58172606646161        2.61672196532298       -0.34020767282307
H           22.60325952708161       -2.56590799189734        0.16954572140726
H           24.49835144567998       -4.43087182170821        0.61402093961853
H           28.19610400794080       -5.34911762515083       -0.74318969878347
H           28.16110843569396       -7.76094340239842       -0.13715785653339
H           26.05876314127189       -7.01629067897457        3.31487600025824
H           26.01107693758314       -4.57018199161958        2.86560969372553
H           29.72638559258165       -4.28618590786251        1.16991500675481
H           31.60818640491344       -2.42391053618879        0.65165533285921
C           19.71011408224129       -0.00719838786588       -0.10829357106680
C           18.47989745206275       -0.02694285621775       -0.10448508784373
C           17.13884505457597       -0.03575403110838       -0.09567283020481
C           15.91325682720648       -0.04800164155822       -0.08003371810789
C           21.05114002229652        0.00717152064041       -0.10330796764667
C           22.27673738610732        0.02229552232511       -0.09084358309757
