118
 energy: -198.914437423186 gnorm: 0.000220921097 xtb: 6.5.1 (b24c23e)
Co          15.23809000112621       -0.04720166248009       -0.04446648458956
C           11.86674083802760       -0.06854703201418       -0.14859472559748
C           12.52331428378094       -1.25850373612306        0.08367557533175
C           11.86149076013342       -2.50407690655704        0.32606976138514
C           12.82095480682982       -3.45969057810004        0.32640544661233
C           14.06587485969058       -2.79793937250477        0.06410711230531
N           13.87991716299786       -1.44062547932238       -0.01212254675914
C           15.25961539648263       -3.45331169546820       -0.20678557409627
C           15.27532758651329       -4.93152548725302       -0.28241202574616
C           14.50255259428222       -5.60031653841920       -1.15364689034102
C           14.49096693618080       -7.10278942070811       -1.24359892196898
N           15.63171319449482       -7.68837774391968       -0.53689046429865
C           16.27966175651278       -7.00166635318973        0.45276331670974
C           16.16811841174348       -5.66815389720171        0.59806819869101
C           16.44125139066148       -2.75743627577993       -0.42204760134424
C           17.68240053284127       -3.37374724176050       -0.78213772359284
C           18.62778434109801       -2.40397935741072       -0.73848886835504
N           16.61637685867592       -1.40781812148346       -0.22382362438359
C           17.96218314632335       -1.19967935136253       -0.35430278843641
C           18.62934872139409       -0.02103849623602       -0.01749572262175
C           17.93973884348604        1.14248642816001        0.32781616090236
C           18.57995875186715        2.34664396143974        0.75302762829699
C           17.61583502175690        3.29628477063234        0.82210748257154
C           16.39037322385995        2.67017576333508        0.42658723931141
N           16.59212844781776        1.32997685125419        0.18998414082846
C           15.20439049760280        3.35373345701204        0.19871768804823
C           15.18845097836598        4.82832446611495        0.32797580921450
C           14.37120664151081        5.44752228781333        1.19518903767827
C           14.32556057902532        6.94451776404995        1.34442243876116
N           15.46950055913538        7.58216039685598        0.68962222069909
C           16.16549307762057        6.94580400518887       -0.30081270862071
C           16.09264866388871        5.61578311630268       -0.49480328283682
C           14.03521879463572        2.69053134240993       -0.15021226565672
C           12.79976711910389        3.34397194732975       -0.47091815700768
C           11.85873782196402        2.37551701072669       -0.57218049973975
C           12.52176602157262        1.13193734893687       -0.32199749740764
N           13.86612245231865        1.32955336086927       -0.12847358373006
H           10.78370143751709       -0.07568023636011       -0.18694820886862
H           10.79831171959477       -2.61345723261175        0.47128862412777
H           12.70852183362111       -4.52005357244031        0.48507568900790
H           13.83539983723365       -5.08585798434612       -1.83533959311300
H           14.54089936988538       -7.42010698423468       -2.29452748041545
H           13.54648816223723       -7.50163407241582       -0.82891451967292
H           15.59303776021924       -8.69259984703498       -0.44450592899550
H           16.94710713512401       -7.60289359642988        1.06174715964023
H           16.72403700759765       -5.13773798192516        1.35797881498297
H           17.80357651688496       -4.41525174355103       -1.03238418671769
H           19.68415926558009       -2.48341605802066       -0.93854899152831
H           19.63277759678905        2.43891756972668        0.96593373011059
H           17.71540744070374        4.33090862720118        1.10782288220611
H           13.69072831940104        4.89354270489047        1.83126097802736
H           14.34378840421521        7.21983303135905        2.40828473858722
H           13.38284598051002        7.34048720075182        0.92336484005567
H           15.40777537490958        8.58766717308006        0.62966064800032
H           16.83603609965303        7.58390862785398       -0.86747011716009
H           16.68502379972194        5.12605704031890       -1.25449574708266
H           12.68145440875116        4.40783222016882       -0.59918870999675
H           10.80627966067041        2.47499752870624       -0.78623884120514
Co          26.05229162799871        0.05564846628557       -0.03331591393560
C           29.42363841712069        0.09884445639694       -0.13041336895716
C           28.76706234608765        1.21120593266507        0.35186814205181
C           29.42888189436683        2.37571505908766        0.85598274128035
C           28.46941751712201        3.30898478944436        1.06142080888149
C           27.22449842380797        2.71896076140659        0.66318588609227
N           27.41046014930298        1.40964910648503        0.29737892242720
C           26.03075924675617        3.41720643423003        0.53926592205608
C           26.01504138193428        4.87720131229486        0.78267236546390
C           26.78783900248580        5.71740159047408        0.07530847806499
C           26.79944491957124        7.20416460624998        0.30994831773067
N           25.65869781615972        7.62442199631875        1.12587301581355
C           25.01071436402430        6.74130092942611        1.94504102035955
C           25.12224529864108        5.40768097401826        1.80073243703431
C           24.84912723026349        2.78375591797577        0.17964102149946
C           23.60798273963088        3.46299168219017       -0.03979564489740
C           22.66259960106403        2.50645589485822       -0.20531568988193
N           24.67400467841699        1.42304699309708        0.08355632041300
C           23.32819885722937        1.24776356028646       -0.08855521469425
C           22.66103550503564        0.02430021039283       -0.01256423191084
C           23.35064889101744       -1.18622159512174        0.07496900471183
C           22.71043405910705       -2.45358213485918        0.23182378809328
C           23.67455712728829       -3.39591565473501        0.09545150282083
C           24.90001678264809       -2.69950384492650       -0.15647206722871
N           24.69825732939973       -1.33975584318172       -0.09991628855569
C           26.08599500869949       -3.31821772030862       -0.52576982533727
C           26.10193158616890       -4.78618376333163       -0.71603263897149
C           26.91919814240455       -5.57708479239003       -0.00195589053358
C           26.96483601101694       -7.07122220612445       -0.17750955518268
N           25.82084381349526       -7.55345987075726       -0.95383202352317
C           25.12482246929144       -6.71935983421141       -1.78458171152112
C           25.19769338472735       -5.37869671458035       -1.68861205290810
C           27.25516223654387       -2.59557416248986       -0.72423340946509
C           28.49060955497721       -3.16493930049562       -1.17774285378175
C           29.43163912557831       -2.19732154449067       -1.06876791482887
C           28.76861442367318       -1.03643484897264       -0.55746752345474
N           27.42425800646085       -1.27098378427550       -0.41087647860672
H           30.50667771569050        0.11404702900183       -0.16634353373560
H           30.49205912516843        2.45137324509743        1.02130716446304
H           28.58184867526514        4.31057186244448        1.44400176289009
H           27.45501848873023        5.36124220312488       -0.70089686164591
H           26.74951892845595        7.73965370652552       -0.64838287688666
H           27.74392415620227        7.50470356598769        0.80058231162172
H           25.69736642085610        8.58541179172652        1.43164147183099
H           24.34325104411203        7.19780928722765        2.66886056972501
H           24.56630512579688        4.72652477236898        2.42906873331843
H           23.48680705156807        4.53393505548307       -0.06066902405154
H           21.60622612885943        2.62698130742140       -0.38367115596828
H           21.65761820114876       -2.58940492572111        0.41997779353935
H           23.57498687153019       -4.46775138703528        0.15244643725581
H           27.59970063857784       -5.17253877851308        0.73817286408704
H           26.94666604271544       -7.56845827340689        0.80246923863500
H           27.90752089889527       -7.36759362220767       -0.67379782441751
H           25.88252900430368       -8.52267263904508       -1.22818341121743
H           24.45425156364668       -7.22097113111231       -2.47496138939131
H           24.60530771458619       -4.73733103572650       -2.32547976476005
H           28.60892084665467       -4.17646728561739       -1.53138560010127
H           30.48409582709126       -2.24853410214517       -1.29919660211217
C           20.03717423206388       -0.00715151475061       -0.01602447661392
C           21.25321012248017        0.01041786467949       -0.01410930329112
