494
 energy: -864.006411720041 gnorm: 0.000980787221 xtb: 6.5.1 (b24c23e)
C          115.43185384596428       -0.04590961358628       -0.13242186240039
C          116.03683423926431        0.95245309611507       -0.88719124870925
C          115.38941440134032        1.95021011039044       -1.66693483906057
C          116.35716725855107        2.72445304647198       -2.24595114117611
C          117.62141433231501        2.22125635425069       -1.83653987917058
N          117.38257829322967        1.15724364145732       -1.02061320230016
C          118.88890879129539        2.71226294256814       -2.19675706380651
C          118.91124491488200        3.83133642711673       -3.05836171762488
C          118.92510305049299        4.79506315837249       -3.79572708919999
C          118.95021738824349        5.91821500694189       -4.65358766249724
C          117.76709999665628        6.49787548827273       -5.12701421651245
C          117.84734284260175        7.59708217657969       -5.96329731399692
N          119.00163712200336        8.13782561275467       -6.34548745872104
C          120.13078689287411        7.59244665204514       -5.89994616252266
C          120.16011201639873        6.49300763767222       -5.06079924689497
C          120.11801801109500        2.18270262542935       -1.76986798827083
C          121.40102141190673        2.72257936733049       -2.17573835556457
C          122.34023709239308        1.96580504730991       -1.57028088862498
N          120.28925138512238        1.12553135829322       -0.94036593614285
C          121.62531074447381        0.96869858536117       -0.79688901255797
C          122.27235716573894       -0.00080894690716       -0.01027045360714
C          121.64264528610165       -0.99329080821216        0.76405515017364
C          122.28363325813854       -1.98234207563677        1.55498773040857
C          121.31187796143644       -2.75891313061748        2.12617358194152
C          120.05236582048053       -2.26337334292376        1.69927366111001
N          120.29859947715109       -1.19764247696264        0.88178638792244
C          118.78635792788687       -2.76823941502816        2.04391646311928
C          118.76360515458317       -3.89397303284880        2.89535949688949
C          118.74826687814263       -4.86631958553001        3.62159982371294
C          118.72516394918156       -6.00087211887888        4.46393727892887
C          119.90997573575356       -6.59649901454564        4.91290817574310
C          119.83242344874543       -7.70745483905322        5.73364885862496
N          118.67925771313276       -8.24510307837706        6.12337208382187
C          117.54857328688234       -7.68442605134254        5.70142209045369
C          117.51648612171299       -6.57262307226172        4.87885499853996
C          117.55669965315330       -2.24419668083014        1.60628781111757
C          116.26768569336473       -2.79219959943106        1.99116316517379
C          115.33486748275274       -2.03031754384398        1.38438564505161
C          116.05735488760331       -1.02078790597518        0.63004045510181
N          117.39775997280805       -1.18370385672729        0.78977625395267
H          114.34674468592333       -0.05588449197088       -0.14858505749281
H          114.32040924561093        2.05218737821098       -1.76447953249635
H          116.21841315348892        3.57040499766949       -2.89996478801238
H          118.10191741346006        0.59682949132897       -0.57602569616311
H          116.80525882552186        6.08959623376511       -4.84055457414791
H          116.94536771896972        8.06679732396228       -6.34521578850153
H          121.05439196773209        8.05864254068794       -6.23109607896106
H          121.10272221117131        6.08075369547436       -4.72141632599537
H          121.53508368223540        3.56559157601304       -2.83462413550880
H          123.41372198419251        2.05225946692058       -1.62310382892813
H          123.35147827337160       -2.08056431528374        1.66561370397937
H          121.44734268737290       -3.60152511455473        2.78493504726201
H          119.58217947681881       -0.64279589844240        0.42525050238898
H          120.87091091317544       -6.19132930514349        4.61941880480214
H          120.73568734179692       -8.18995663650296        6.09591936002846
H          116.62595650416597       -8.14841959882709        6.03821721030894
H          116.57269119011129       -6.14820404962994        4.55840133169229
H          116.12880911465714       -3.64319012116867        2.63897766820930
H          114.26036189663472       -2.11695754689827        1.42273952967396
C          216.80803275649629       -0.18236156517881        0.03229732914540
C          216.19850338192578       -1.01344233195741        0.96522122639970
C          216.84089953068889       -1.87720365229056        1.89463520067830
C          215.86951099740048       -2.50826899508995        2.62238332375263
C          214.60815214537052       -2.04679877470413        2.15882155229402
N          214.85206566281258       -1.15099515537892        1.16238666632625
C          213.33850726812048       -2.42552777823187        2.63007905773128
C          213.30898591079875       -3.37678116732737        3.67385449307283
C          213.28505407179793       -4.19961974934434        4.56549537005213
C          213.24729342919790       -5.16014313135185        5.60183681836347
C          214.42252458714827       -5.71019973607398        6.12714192163577
C          214.32897324481181       -6.64870760229933        7.13933534251243
N          213.16895373961253       -7.06038832989884        7.64498294858341
C          212.04719724756757       -6.54227209471906        7.15095400960941
C          212.03125606569529       -5.59885655419399        6.13931087512669
C          212.11282483229823       -1.93882994223752        2.14663371889312
C          210.82812853483006       -2.35345093956328        2.67541581893976
C          209.89266172449180       -1.68864999573360        1.96524261448231
N          211.94620108064819       -1.04387134715827        1.14305896655926
C          210.61159281437912       -0.87329557922495        1.00514720024325
C          209.96728414960324       -0.04973089394449        0.06411950516426
C          210.60074959632226        0.76036426654920       -0.89729788638827
C          209.96400307651822        1.59758337536771       -1.85013255027342
C          210.93955211575994        2.22408579744057       -2.57796935611634
C          212.19713220018477        1.78507132921990       -2.08824725209466
N          211.94585511482856        0.90184977447897       -1.07748322464315
C          213.46612904041001        2.18198346693564       -2.54517015274459
C          213.49505238391461        3.12112043338627       -3.59869744724917
C          213.51664905611318        3.93110130608623       -4.50238803733833
C          213.54748235043772        4.87635684885654       -5.55256150123009
C          212.36649083190218        5.36842472398137       -6.12109699643440
C          212.45087064952372        6.29260516618196       -7.14705472576637
N          213.60727122533120        6.74337406086677       -7.62698731961386
C          214.73438583489943        6.28025567173789       -7.09222804715748
C          214.75963127692799        5.35524377967765       -6.06384852823095
C          214.69342075559550        1.71882363586140       -2.03766882824649
C          215.98523535990282        2.15384638445964       -2.53963824975655
C          216.91445628215584        1.49284847156746       -1.81964554497761
C          216.18707090208790        0.65680169168672       -0.88046025267876
N          214.84726780784769        0.82289899120390       -1.04258011291616
H          217.89312870658961       -0.20018048574635        0.02409540734267
H          217.90916275593969       -1.99260860882185        1.98503710115956
H          216.00403125557872       -3.22966762835280        3.41239630493509
H          214.13553428870006       -0.65687205639827        0.64120447541349
H          215.38860771872714       -5.40353742838018        5.74440180900561
H          215.22457901662835       -7.09193858554729        7.56518540904547
H          211.11858168199797       -6.90038756841572        7.58623467795766
H          211.09433545356495       -5.20330842973509        5.76611233612068
H          210.69031547345892       -3.05770781905310        3.48026225246874
H          208.81930675938989       -1.72883870103859        2.05947493190895
H          208.89633296440527        1.70203949639710       -1.95681923501307
H          210.80779413599498        2.92899904648342       -3.38299207722104
H          212.66004287804341        0.42382235423125       -0.53804919405867
H          211.40315742020005        5.02830031478627       -5.76048934738001
H          211.55064430587410        6.69112206185163       -7.60608317260951
H          215.65975058054039        6.66922146233570       -7.50740891750749
H          215.70078614908593        5.00483566457379       -5.65763169363204
H          216.12828258801395        2.86805695892285       -3.33497808326653
H          217.98947513165947        1.54371023558169       -1.89223156396012
C          124.90215490379666        0.00045566478799        0.03472075001649
C          123.68124660828828        0.00522812218975        0.01210190045644
C          126.25383269070036       -0.00743435392900        0.05001973347941
C          127.47488189191593       -0.02081144590479        0.06508278197158
C          138.41701831292511       -0.10345467958569        0.04552443760820
C          137.19447449094631       -0.10599109362680        0.04820153660764
C          139.76564011785695       -0.10478298085929        0.03955994621100
C          140.98820159443400       -0.10300435436452        0.03811881948572
C          151.93009233947240       -0.04914293124637        0.01763350261916
C          150.70747769430670       -0.05355448972840        0.01444350518451
C          153.27858567940561       -0.04894169890425        0.01640002114842
C          154.50123096788278       -0.05039756078708        0.02138455579077
C          165.44505404869142       -0.05629650693643        0.01958750090909
C          164.22237948749316       -0.06072593343285        0.01625550843724
C          166.79358452390386       -0.05445402609885        0.01882098277973
C          168.01624758292641       -0.05450204660586        0.02071177373193
C          178.96046691618022       -0.05059576542401        0.01783232601032
C          177.73779055261483       -0.05474262545821        0.01389333788393
C          180.30899527422207       -0.04960853612484        0.01597483654834
C          181.53164054336003       -0.05007914028687        0.02068844980980
C          192.47429885507216       -0.06257731769926        0.03685458677638
C          191.25174477398411       -0.06947177309451        0.02952855628572
C          193.82288426366637       -0.05895483647327        0.03990902021130
C          195.04541167644493       -0.05764302844814        0.04898965568140
C          205.98679884858910       -0.01026212875011        0.07670771145473
C          204.76530293575280       -0.01059887520905        0.07682385484698
C          207.33787929291475       -0.01604055814005        0.07212744356328
C          208.55923624498914       -0.02903216252503        0.06931433018666
C          128.88303850470646       -0.04230147349263        0.06676244876732
C          129.50615448877122       -0.25431829032839       -1.17802282125248
C          128.86204900075495       -0.45845609867129       -2.42493545622102
C          129.83257223915578       -0.65350950551500       -3.37133527990105
C          131.09250116927976       -0.57047198822635       -2.72534457504998
N          130.84993951957014       -0.32557357936055       -1.40477089731380
C          132.35702233843901       -0.71645850984987       -3.32558703445353
C          132.36227477009587       -0.99785657284572       -4.71010447175199
C          132.36060247081386       -1.25190470431318       -5.89674738202441
C          132.36317859813528       -1.55460189910022       -7.27750126782349
C          133.56015348413530       -1.77017567877659       -7.97085438528324
C          133.50795586370094       -2.06909803314718       -9.32064478943465
N          132.36838115392541       -2.16285121531221      -10.00149713581491
C          131.22626273657940       -1.95834180453690       -9.34984604000501
C          131.16893249025142       -1.65460631404554       -8.00131677992253
C          133.59439450654946       -0.61060485419138       -2.67234784098557
C          134.86682666466112       -0.75405182478207       -3.35214801165719
C          135.82086004706002       -0.57799608654794       -2.41373319715270
N          133.78664656280895       -0.35827599647262       -1.35432938760002
C          135.12482211474449       -0.33260572551351       -1.16588106638382
C          135.78998263142890       -0.10611106689015        0.05401080701194
C          135.16599251606956        0.11851759680750        1.29753734124750
C          135.81001754463645        0.33805695387096        2.54150636022732
C          134.83883153360361        0.49941301371078        3.49380151381523
C          133.57862424442112        0.38365612459276        2.85342343835675
N          133.82234493342125        0.15535811489439        1.52951940314264
C          132.31359507657518        0.48224255435270        3.46123209146403
C          132.30555011002087        0.71525734849233        4.85453185341831
C          132.30763356168299        0.91023771342487        6.05239191088298
C          132.29806655079909        1.14152729119086        7.44680248573088
C          131.09638810089913        1.23163130132152        8.15924034488302
C          131.14161725190343        1.45745896877898        9.52339480913554
N          132.27867550608167        1.59537592405930       10.20070467696124
C          133.42522970348276        1.51145218101108        9.53067850548632
C          133.48961846827359        1.28780946088261        8.16692356770328
C          131.07573738929869        0.37386912273881        2.80730757218861
C          129.80279320464962        0.49042776584247        3.49188767964454
C          128.84905744302668        0.34524633111168        2.54808751165537
C          129.54525027212685        0.13972636722716        1.29315919060661
N          130.88488849346180        0.16037256990958        1.48360664878361
H          127.79393253459618       -0.45756330307508       -2.57050728495158
H          129.69453482766238       -0.83840032690859       -4.42442889903058
H          131.56498613165761       -0.21862113125804       -0.69299939642095
H          134.51047176922876       -1.70415826807991       -7.45476590930911
H          134.42106259042021       -2.24219533937108       -9.88317736647442
H          130.31533881510316       -2.04241352884446       -9.93578197215848
H          130.21643927621560       -1.49630785837874       -7.50969381238438
H          134.98459496560304       -0.95870807833651       -4.40427605027191
H          136.89274536854592       -0.60786627122020       -2.52682140677592
H          136.87846558016375        0.36621049147149        2.68216032221216
H          134.97678110616656        0.68255942592613        4.54721084137836
H          133.10735037673405        0.02964822481518        0.82078120366464
H          130.14784118581338        1.12517385327538        7.64693247356298
H          130.22478466602533        1.53132007062667       10.10115544314704
H          134.33392124772163        1.62874750918090       10.11414359838000
H          134.44548644102275        1.22633863286467        7.66074024196273
H          129.68467457574883        0.66119050335399        4.54999979088803
H          127.77710306378155        0.37048200710053        2.66148424114718
C          142.39256490116338       -0.10148688046797        0.03486205247462
C          143.01937713596919       -0.34422519461207       -1.20406053569933
C          142.37833526926420       -0.59393414784562       -2.44356607339340
C          143.35205338241667       -0.78406922681225       -3.38833143842665
C          144.61031192777747       -0.65341856581197       -2.74777700742528
N          144.36364737906382       -0.38756074591284       -1.43163344128935
C          145.87730040527603       -0.77450360663757       -3.34873012160592
C          145.88805685034387       -1.06687906199841       -4.73093305487686
C          145.89237380702866       -1.32418049999943       -5.91689169191939
C          145.90488231855653       -1.62711929112226       -7.29755162521034
C          147.10820973677082       -1.81376579290704       -7.98839328192008
C          147.06626133366254       -2.11122972203021       -9.33885371663108
N          145.93083157112497       -2.22994917547419      -10.02262265807575
C          144.78276053408226       -2.05356836606560       -9.37329066874860
C          144.71509050487245       -1.75394636765405       -8.02429125325880
C          147.11325328226675       -0.63310355835630       -2.69947756018267
C          148.38719553141459       -0.76181122197976       -3.37931928600459
C          149.33918550418991       -0.56085021764002       -2.44378499662791
N          147.30268906388113       -0.36191165753004       -1.38468543111250
C          148.64050662319144       -0.31262126583856       -1.19812015721496
C          149.30323527106364       -0.06294498099638        0.01865004195121
C          148.67636956438801        0.17591441971526        1.25839074890617
C          149.31740551178814        0.42246415396184        2.49857091757567
C          148.34379926941858        0.59439105031595        3.44689771214720
C          147.08556449356533        0.45788635467729        2.80748586729050
N          147.33222974377753        0.20701030513751        1.48830920185465
C          145.81878873510615        0.56018071355328        3.41206408721593
C          145.80760387730149        0.81778684698019        4.80113881096015
C          145.80109514899323        1.03498924660425        5.99513107003525
C          145.78611865789932        1.28607608075573        7.38609859522856
C          144.58114667008843        1.39517159770840        8.09031030509634
C          144.62036287219340        1.64011919015941        9.45131192547430
N          145.75465324465827        1.77901121452530       10.13304173562381
C          146.90427349177222        1.67665293268232        9.47093443818074
C          146.97468298539002        1.43327731735371        8.11082490851391
C          144.58268352677899        0.42891854203861        2.76072728511674
C          143.30883366578740        0.55292773869445        3.44152556035462
C          142.35670067723112        0.37160626638312        2.50211179473526
C          143.05526919047850        0.13608972318345        1.25397046144863
N          144.39324352339861        0.17723456786210        1.44218705263193
H          141.31023950858363       -0.62383074354918       -2.58641093441096
H          143.21666299294392       -0.99560444587274       -4.43674294318358
H          145.07680629229591       -0.24480096493725       -0.72425090618643
H          148.05546183870882       -1.72659304741835       -7.46991606026479
H          147.98441015691694       -2.26158692137129       -9.89957480445591
H          143.87552951859067       -2.15746711737581       -9.96162248287559
H          143.75806343341793       -1.61881252863078       -7.53471642427781
H          148.50746641051603       -0.97593824621118       -4.42927250727415
H          150.41130257456203       -0.57439829119074       -2.55776072969936
H          150.38542745671413        0.46117007357703        2.63976896546504
H          148.47917745742350        0.79815414460669        4.49684201506358
H          146.61906847874806        0.06226208933363        0.78133829331866
H          143.63475338109129        1.28856777056000        7.57403681299216
H          143.70089506904856        1.72938531426856       10.02269944418138
H          147.81054550078903        1.79516706991410       10.05787781927451
H          147.93289172045604        1.35722828428568        7.61110625980093
H          143.18859642018643        0.75257433791709        4.49432311314671
H          141.28456706227166        0.38923749993397        2.61538269804418
C          155.90548063020717       -0.05711191435713        0.02121801649751
C          156.53334649679982       -0.30766130404872       -1.21572581160049
C          155.89347832059826       -0.55643121633489       -2.45599911267917
C          156.86805266129986       -0.75642001936347       -3.39783414271472
C          158.12570407828127       -0.63288148689044       -2.75466623533356
N          157.87778804442823       -0.36143011364786       -1.43987257901572
C          159.39309037623937       -0.76345537246663       -3.35265410501738
C          159.40467426516906       -1.06019387399695       -4.73391887134485
C          159.40983404352605       -1.32224493595934       -5.91884555547312
C          159.42447173417085       -1.63131427297516       -7.29810476248016
C          160.62879330274163       -1.83160887646558       -7.98331273748247
C          160.58955823695109       -2.13480067546926       -9.33254062916420
N          159.45581075639902       -2.24667813409653      -10.02024257873407
C          158.30680894922943       -2.05724738215024       -9.37631249360430
C          158.23644885918000       -1.75092984059247       -8.02892669004592
C          160.62886039667720       -0.62691352581837       -2.70190094719499
C          161.90299561984858       -0.76106775151950       -3.38032733982000
C          162.85483109246437       -0.56284392733983       -2.44404382849194
N          160.81800914918892       -0.35567385399927       -1.38710367748900
C          162.15587608973712       -0.31182261170743       -1.19912537955493
C          162.81809964453231       -0.06634738730100        0.01877337802782
C          162.19013746766467        0.17140713447055        1.25823772995772
C          162.82997968832882        0.40937848619335        2.50065656349168
C          161.85536809699460        0.58444366574795        3.44742139516157
C          160.59769485139120        0.45891445466191        2.80466028699831
N          160.84568455620115        0.21043650906073        1.48530905455121
C          159.33028441906328        0.57057302396475        3.40639383028690
C          159.31802082839351        0.82454002035961        4.79615251262659
C          159.31134698837465        1.03815963750575        5.99074396831852
C          159.29457590718573        1.28321789116251        7.38277304828418
C          158.08865179156214        1.39158291838051        8.08547957836634
C          158.12610703172351        1.63052802424005        9.44759147926449
N          159.25952435600894        1.76456085957555       10.13170756781289
C          160.41003233371765        1.66359576348407        9.47090621350754
C          160.48220166621940        1.42597960060442        8.10988039926931
C          158.09451593568278        0.45284784139770        2.75187326099321
C          156.82035880503526        0.58954299481678        3.42974410359957
C          155.86860523581956        0.41848596730783        2.48802564499680
C          156.56765912947597        0.17641075614845        1.24142510492535
N          157.90549224818804        0.20436667294749        1.43259687662409
H          154.82555545389795       -0.57896274260306       -2.60139362449056
H          156.73359644427873       -0.97000036853242       -4.44594516554177
H          158.59014640430348       -0.22231947985558       -0.73096418761680
H          161.57473306725805       -1.75046233592650       -7.46135354571936
H          161.50863514423250       -2.29585172800259       -9.88897960329230
H          157.40100917706022       -2.15571267662609       -9.96782394345498
H          157.27869147281990       -1.60521322790796       -7.54378334794816
H          162.02348646317731       -0.97604585286489       -4.43007595827115
H          163.92700567987447       -0.58056441209229       -2.55695084034775
H          163.89792043835962        0.44016327838886        2.64443173245114
H          161.98976615524660        0.78352367530076        4.49839403752679
H          160.13328546022885        0.07290920898263        0.77612607401354
H          157.14288765789425        1.28887769603135        7.56727620978774
H          157.20585951934271        1.71848752605725       10.01789942744849
H          161.31552832943007        1.77818421971618       10.05982433510280
H          161.44104146424840        1.35081495946695        7.61124062421683
H          156.69972438727214        0.78994858976224        4.48235348600956
H          154.79643749899873        0.44705917120355        2.59872109374026
C          169.42052547181942       -0.06023259433237        0.02046249546649
C          170.04854491816303       -0.30435434567134       -1.21768183076482
C          169.40880503369007       -0.54634481748824       -2.45935749981187
C          170.38344043014465       -0.74470706041095       -3.40147393796144
C          171.64103264651118       -0.62694214876457       -2.75708009473735
N          171.39297462052110       -0.35956783303553       -1.44144496913819
C          172.90839955735717       -0.76089633663484       -3.35440521222109
C          172.91989736919547       -1.05793315235090       -4.73560708154678
C          172.92430855542773       -1.32126321291693       -5.92025496205957
C          172.93642238302087       -1.63277266356252       -7.29897974401092
C          174.13891271640085       -1.83687990882638       -7.98604386981620
C          174.09631235943871       -2.14309511341195       -9.33452303172557
N          172.96102740210256       -2.25442232205334      -10.01975155109134
C          171.81376479277336       -2.06089167015613       -9.37411661074665
C          171.74677359735969       -1.75135038811425       -8.02735854744723
C          174.14424163751687       -0.62798679476357       -2.70301069604528
C          175.41831822863986       -0.76692378903645       -3.38056246244072
C          176.37024185350737       -0.56821031459993       -2.44443853143037
N          174.33345319559601       -0.35409870112892       -1.38880410047582
C          175.67135689329103       -0.31178570601921       -1.20059707219579
C          176.33352836670514       -0.06167477212239        0.01637166508729
C          175.70550482702663        0.17932765601442        1.25515070409376
C          176.34532869345830        0.42275167184582        2.49650887028461
C          175.37073425740775        0.59618187184579        3.44359487490548
C          174.11310181629304        0.46409002063683        2.80208716328401
N          174.36107253775842        0.21403785851210        1.48304529676314
C          172.84569882540313        0.56943065311275        3.40504021234379
C          172.83361615341855        0.82240752917821        4.79499461495775
C          172.82686198479249        1.03503143040861        5.98972959982430
C          172.81150828310527        1.28083134262874        7.38163102897857
C          171.60640472339986        1.39049105660103        8.08549242853997
C          171.64545579464146        1.62983176473930        9.44752445160025
N          172.77967399083548        1.76279417133434       10.13053180788694
C          173.92943998820863        1.66004369661486        9.46871980975176
C          174.00001817768137        1.42198982054526        8.10768840858942
C          171.60989268671929        0.44599981199250        2.75168744571623
C          170.33577952044629        0.57433157782905        3.43128441715918
C          169.38388312883603        0.40273479285783        2.48981232776189
C          170.08278664153735        0.16847648614352        1.24161126577279
N          171.42067104044537        0.20075341742906        1.43181656181272
H          168.34091196047197       -0.56570132280706       -2.60543122656156
H          170.24906954199830       -0.95353924754950       -4.45055508256273
H          172.10526452021898       -0.22449050493720       -0.73167729861518
H          175.08607985276836       -1.75633570082054       -7.46621792267339
H          175.01387141265386       -2.30754520739856       -9.89229706712343
H          170.90666646107621       -2.15913986651963       -9.96354007202928
H          170.79045355001614       -1.60233624122526       -7.54070324957726
H          175.53874063889606       -0.98536092828160       -4.42961011205979
H          177.44242407115141       -0.58878830606670       -2.55684080914622
H          177.41324657668068        0.45820410786301        2.63936133282508
H          175.50515879443262        0.79834539481264        4.49397464093357
H          173.64868626871092        0.07238460372480        0.77466107047125
H          170.66001840048526        1.28855791933070        7.56827085358981
H          170.72585735896479        1.71922237092663       10.01865914845248
H          174.83563321595264        1.77367140876796       10.05677266178694
H          174.95829703718428        1.34525735254512        7.60821815764672
H          170.21529071028610        0.77011129707868        4.48478119369870
H          168.31170492454808        0.42605037490937        2.60167865105341
C          182.93591628416868       -0.05618370267405        0.02248980816449
C          183.56535555702155       -0.30146709148755       -1.21468655283591
C          182.92690098117149       -0.54316584791548       -2.45712196320607
C          183.90247326031866       -0.74230611544935       -3.39807858307149
C          185.15940616081460       -0.62533082103140       -2.75221408974014
N          184.90998593327475       -0.35777235445752       -1.43684964867945
C          186.42737866222868       -0.76022570557729       -3.34788472884029
C          186.44060777793104       -1.05618450539243       -4.72928682003849
C          186.44726517541335       -1.31885833061508       -5.91402918731585
C          186.46124825724462       -1.62842818874540       -7.29318099707368
C          187.66485995592382       -1.82734474990164       -7.98004120593689
C          187.62403710332032       -2.13214638959526       -9.32889426602702
N          186.48948679505872       -2.24659875054266      -10.01475905774709
C          185.34118346278100       -2.05832031394118       -9.36925391455019
C          185.27240359675466       -1.75051299302945       -8.02217671849953
C          187.66228155911622       -0.62951380096688       -2.69421036696016
C          188.93739659073310       -0.76978787912394       -3.36948579550802
C          189.88781272317780       -0.57406403805133       -2.43121581456873
N          187.84928472253569       -0.35768569092186       -1.37933305860237
C          189.18692615038370       -0.31814332011990       -1.18841773514766
C          189.84738936798911       -0.07132155783925        0.02999696991412
C          189.21811599011809        0.16946900958187        1.26818053305215
C          189.85661727578116        0.40984894554354        2.51083304385403
C          188.88100206779018        0.58613206381516        3.45634375645631
C          187.62404511087291        0.45856536824036        2.81263895044905
N          187.87339635143752        0.20824744531053        1.49394182135039
C          186.35584001261955        0.56840787976902        3.41323224186701
C          186.34219471074999        0.82265336075633        4.80293621219997
C          186.33509687672776        1.03702767030679        5.99740775748520
C          186.31904020483665        1.28536487684985        7.38885867157313
C          185.11357382855465        1.39678655644508        8.09178561795365
C          185.15186644228646        1.63933291561812        9.45327060618181
N          186.28569909920338        1.77378599975895       10.13665189789609
C          187.43582705100968        1.66920179914729        9.47576046897248
C          187.50714913925671        1.42789628098450        8.11531623113611
C          185.12106444370175        0.44831014844577        2.75745743190305
C          183.84590526309375        0.58034159146218        3.43435023456465
C          182.89550677057321        0.40976742806814        2.49117884074147
C          183.59638176880409        0.17281192862509        1.24455800189007
N          184.93391124991140        0.20244498669004        1.43736331471379
H          181.85916618523245       -0.56172913245026       -2.60447753819266
H          183.76920768669322       -0.95110937678153       -4.44731297764391
H          185.62160660295555       -0.22341069431406       -0.72627490184198
H          188.61141297923407       -1.74407773151798       -7.45975803756816
H          188.54239771754700       -2.29239632796691       -9.88650446490294
H          184.43465084588783       -2.15915446289493       -9.95916925736856
H          184.31517882559774       -1.60573454702045       -7.53566905783768
H          189.05949428753001       -0.98685108220967       -4.41861691799457
H          190.96017947804498       -0.59637057022195       -2.54148802402346
H          190.92439625090853        0.44162253805604        2.65556907427242
H          189.01433022825768        0.78728486650692        4.50705880568485
H          187.16163896644846        0.06950173581647        0.78435122691779
H          184.16748230923218        1.29384743791999        7.57418929658014
H          184.23194161324238        1.73022027228134       10.02363108354319
H          188.34169550294192        1.78412181049618       10.06408078784401
H          188.46572617436229        1.34983887878302        7.61661816510603
H          183.72381913493322        0.77748649778991        4.48740582425838
H          181.82316020327136        0.43565340951689        2.60085925326866
C          196.44986389013508       -0.05784459585185        0.05375498637234
C          197.08316638019772       -0.28669122816015       -1.18438503784604
C          196.44863079328559       -0.52729220017826       -2.42927774750886
C          197.42711691620264       -0.70339145289236       -3.37154348516493
C          198.68223408824971       -0.57177104040158       -2.72449942057443
N          198.42849351996318       -0.32108455977431       -1.40657566480164
C          199.95188831348028       -0.67356303165980       -3.32198316558962
C          199.97205260083268       -0.95641043088666       -4.70590702702721
C          199.98677244259960       -1.21314917024816       -5.89195665625168
C          200.01233388888710       -1.51912863191204       -7.27171181107379
C          201.22254810640382       -1.70314333782657       -7.95119719583369
C          201.19384036966895       -2.00667338885730       -9.30062931427299
N          200.06499954262384       -2.13349832270997       -9.99383700745107
C          198.91045371696603       -1.95948086206292       -9.35537356367121
C          198.82953797755005       -1.65440999493546       -8.00832062376972
C          201.18428889736236       -0.52441769636846       -2.66613377866997
C          202.46181722411865       -0.61947446985681       -3.34516178673751
C          203.40838725816437       -0.42858739369234       -2.40229026610334
N          201.36548840709202       -0.28146972787809       -1.34584261262031
C          202.70323044048357       -0.22256036325742       -1.15244972933357
C          203.35788119358668       -0.01860999550448        0.07528820670197
C          202.72606369869231        0.17004140053788        1.31967950616018
C          203.36099394828619        0.37263592403965        2.57135627628562
C          202.38286564507357        0.52415103429297        3.51813239064675
C          201.12742510609644        0.41816071489804        2.86685946567407
N          201.38029044729549        0.20324547941099        1.54292014810447
C          199.85753220463062        0.52088526393267        3.46482892438668
C          199.83822627795752        0.75136461846490        4.85861474603370
C          199.82329909505725        0.94863897917238        6.05594519500068
C          199.79668769527035        1.17712227615834        7.45064826689656
C          198.58548673248413        1.29105769487194        8.14334903814281
C          198.61270777896937        1.51416945653303        9.50840517178798
N          199.74103202866772        1.62744480362522       10.20465614680546
C          200.89650484984014        1.52056066461587        9.55351484841729
C          200.97888264484322        1.29767872814429        8.19055988497200
C          198.62510510413512        0.41649820289210        2.80177734741332
C          197.34740774788290        0.54022422660644        3.47566109371051
C          196.40052561018956        0.38230244728348        2.52685793587540
C          197.10602363398422        0.16148867136855        1.27979500046693
N          198.44283667041509        0.18966714789058        1.47770922064773
H          195.38130420133126       -0.56121316287104       -2.57693075970638
H          197.29736709619786       -0.90507707776014       -4.42259884994102
H          199.13806133502044       -0.18328350571410       -0.69461674562904
H          202.16480003141888       -1.60972380802970       -7.42474607540048
H          202.11757090334817       -2.15576449464532       -9.85249115709825
H          198.00888433439044       -2.07031154601907       -9.95112674856502
H          197.86761888082086       -1.52175899892254       -7.52765175561626
H          202.58782303605068       -0.80573222324326       -4.39973540460964
H          204.48086319706391       -0.42545222491996       -2.51330806349344
H          204.42840954113248        0.39877621069922        2.71988594181589
H          202.51289487271808        0.69548769103614        4.57453537873975
H          200.67031011983843        0.08638718236453        0.82763414326759
H          197.64356073526926        1.20511369064708        7.61515964709929
H          197.68813502251666        1.60644408063454       10.07100349212077
H          201.79763298693146        1.61800303831256       10.15218028450674
H          201.94154821332339        1.21709109066498        7.70022679076846
H          197.22136507450824        0.72325307416478        4.53080146444288
H          195.32778324839106        0.40670484556419        2.63297336004520
