122
 energy: -220.917648911497 gnorm: 0.000665835182 xtb: 6.5.1 (b24c23e)
Ni          14.88099331089225        0.06166967800096        0.00779289324697
C           11.47751313203986        0.12118298216704       -0.00082222801692
C           12.13471376563339        0.91556776553882        0.91478938957596
C           11.46333505587112        1.75346888244168        1.86078395575963
C           12.42735048526645        2.41008143904907        2.54892783503997
C           13.68183382732531        1.97219568169214        2.01788805774101
N           13.49833235802576        1.04608427304945        1.02898375737504
C           14.91198147031741        2.47934940078376        2.43794970527866
C           14.92674103113105        3.47748791862673        3.43696868780283
C           14.94269387869053        4.34082598748178        4.28924090365390
C           14.96150595324803        5.34913356353274        5.28034261487313
C           16.15898569093509        5.95890578722671        5.67204157588984
C           16.12308897849235        6.94368459666674        6.64316639781947
N           14.99884936975110        7.34497350033335        7.23098583032792
C           13.85638233227112        6.76940403923904        6.86479690968993
C           13.78353163422824        5.77697007758170        5.90357197919282
C           16.12781690135212        2.05090604015755        1.90472489450780
C           17.38998655847962        2.57989897074656        2.31417456893416
C           18.33805001237268        1.90099403766075        1.62329426992662
N           16.29228023559158        1.06626579681146        0.96397723596522
C           17.64834454571118        0.96057691885065        0.79898429161699
C           18.30483857894198        0.03539752908162       -0.01683680990642
C           17.62330002412054       -0.88625468588779       -0.81599778790471
C           18.28659977011637       -1.84693630270114       -1.63818198458788
C           17.31780821297929       -2.52783852520192       -2.29804082616514
C           16.06999686871725       -1.97585308518343       -1.87589651946831
N           16.26340103672775       -0.97763496538517       -0.95501778161455
C           14.84015036330593       -2.38818636113289       -2.38917809041801
C           14.81966112722516       -3.40765434674115       -3.36621750004783
C           14.79384197658270       -4.28835893430797       -4.20032562630229
C           14.75756769277644       -5.31353068040663       -5.17340107082352
C           15.92397751677414       -5.96949857042218       -5.58328094002112
C           15.83146964960166       -6.96641330314856       -6.53825329473927
N           14.68061294111369       -7.33738219289175       -7.09357887572312
C           13.56720106935276       -6.71849272384083       -6.70915678118220
C           13.55103624575654       -5.71048503311774       -5.76168589882312
C           13.62622148477005       -1.83513139147367       -1.97938090151818
C           12.36000034514782       -2.23402019182855       -2.51336883301682
C           11.41666294133199       -1.52763794417490       -1.84626088595169
C           12.11202919870033       -0.70247014544156       -0.90646548935675
N           13.47068851835324       -0.88656494112557       -1.00717621600758
H           10.39385645326963        0.14167687356470       -0.00566442088964
H           10.39210965098833        1.81828306481208        1.96623256171781
H           12.31856352922385        3.13221854521960        3.34218201025142
H           17.09737793951876        5.66298080979433        5.21881459144760
H           17.03686516266687        7.43482368474334        6.96518204652663
H           12.95818253576654        7.12003452318543        7.36490277254380
H           12.83134644265198        5.33536961135519        5.63532703968834
H           17.51757148506406        3.36691459736290        3.03978213841477
H           19.40969574111837        2.01141004169378        1.66095511729444
H           19.35603964579822       -1.96984708734220       -1.69481181445245
H           17.42252442831233       -3.32826829437306       -3.01254779880087
H           16.88238447792768       -5.69903223211309       -5.15683770793152
H           16.72015309540578       -7.49276145654162       -6.87450660067793
H           12.64587805743581       -7.04599757216480       -7.18228091097974
H           12.62102119226429       -5.23313092331602       -5.47735197397414
H           12.22985627649524       -2.96398554425197       -3.29614979780210
H           10.34472625108824       -1.55234417777195       -1.96101114529989
Ni          30.90517604413261       -0.03885818058542       -0.04830909358962
C           34.30865598440521       -0.06171325691355       -0.10286092737649
C           33.65162494805188       -1.25542764817921       -0.31421161545017
C           34.32318669531071       -2.49743210355169       -0.54695969483993
C           33.35933302697768       -3.42516801591920       -0.75743831666919
C           32.10476085165677       -2.74469834117426       -0.65505536641625
N           32.28804248338518       -1.42053648643501       -0.36812404000971
C           30.87475345023373       -3.36554697733528       -0.87527805639886
C           30.85988278405295       -4.73518746890635       -1.21941074556572
C           30.84334721068867       -5.90958756966469       -1.52353193431197
C           30.82325652202227       -7.27749410713730       -1.88096859422879
C           29.62495582127953       -7.92513253360135       -2.20331329350772
C           29.65923273097551       -9.26385793113318       -2.55080114378031
N           30.78267945587284       -9.97554462435220       -2.59417474310893
C           31.92588597780662       -9.36730397208106       -2.28809385074537
C           32.00035130833924       -8.03324148649218       -1.92897940617933
C           29.65882315948966       -2.68808977412692       -0.78170400642968
C           28.39676889016880       -3.31116131725688       -1.02576104151856
C           27.44855332358071       -2.36981785488181       -0.79818428692458
N           29.49412781649080       -1.37528239393250       -0.41982367033581
C           28.13804450501373       -1.17956735033207       -0.41414996302282
C           27.48132914518726       -0.00460743212083       -0.03912494104688
C           28.16265120616949        1.15455521265165        0.34139645132827
C           27.49916396254478        2.35332924677857        0.74334487721614
C           28.46781974581553        3.26931413901353        0.98890528916238
C           29.71574512147960        2.62374333985734        0.73225197732109
N           29.52253387358148        1.32094933384951        0.34854040686051
C           30.94551186161064        3.27609545701642        0.82255752144515
C           30.96590015113270        4.63801323960036        1.19550051663373
C           30.99119408773339        5.80618148246959        1.52226564932376
C           31.02812270517872        7.16739897830722        1.90300213737317
C           29.86196454362226        7.85646590703236        2.25517812279572
C           29.95500928571848        9.18776409931744        2.62032124031643
N           31.10615365204669        9.85425356168874        2.65372458850255
C           32.21931103165539        9.20615463829220        2.32004435352375
C           32.23494072211144        7.87554900493486        1.94154261180050
C           32.15952153497344        2.64060222055274        0.55849507558078
C           33.42563681053687        3.30386164311168        0.62642660222832
C           34.36914038725222        2.36872472114502        0.36335129605066
C           33.67397017005608        1.13839190232823        0.13821735601900
N           32.31526762414360        1.31922067536200        0.24413564506390
H           35.39232090008818       -0.06798013610023       -0.12262457856245
H           35.39442348289693       -2.62110812080121       -0.54791385414720
H           33.46824927605151       -4.47669697468911       -0.96956087126194
H           28.68719008890823       -7.38320022782078       -2.18139428365839
H           28.74480399408739       -9.79113843712642       -2.80709937682364
H           32.82339594440601       -9.97745301527776       -2.33292114112259
H           32.95313047458265       -7.57763021201714       -1.68764798163295
H           28.26930985775594       -4.33794639718939       -1.32848650500321
H           26.37694168236586       -2.45893033949987       -0.87394091796712
H           26.42970202704907        2.46493138175004        0.81958089614269
H           28.36294600637365        4.29343211718660        1.30882780670913
H           28.90332205001213        7.35209924701030        2.24179879248068
H           29.06653848922551        9.74691860768406        2.89930180584828
H           33.14089586915200        9.77989093073018        2.35836469301697
H           33.16474722785746        7.38607105266960        1.67788987362551
H           33.55563365386261        4.35049933615974        0.85044654880471
H           35.44106933772767        2.48003036465767        0.32575683819475
C           23.50696822288140        0.01903658846382       -0.03720350935361
C           22.27922208686464        0.02040737612876       -0.03642948335890
C           20.93381251369726        0.02424376189397       -0.03276033933193
C           19.71053044102887        0.02791166229752       -0.02746801064787
C           24.85237010020603        0.01403246021991       -0.03810357364623
C           26.07563220609743        0.00825899161008       -0.03850933391125
