122
 energy: -219.679671478824 gnorm: 0.000454189276 xtb: 6.5.1 (b24c23e)
Co          14.31594466028520       -0.05591216581621       -0.08507186008649
C           10.95785229910033       -0.08870537257470       -0.41362539276243
C           11.63752247885630       -1.28232426064455       -0.52320316230721
C           10.99170994209769       -2.54331289857064       -0.72629209961564
C           11.93169538782646       -3.49644710610153       -0.52618701133743
C           13.15787179178310       -2.81620218077572       -0.22750077383565
N           12.97567109621678       -1.45753562236366       -0.27010352552236
C           14.32511294701905       -3.45307877179228        0.17505491822285
C           14.32237515815414       -4.92690423098611        0.34037810739062
C           14.12587006473967       -5.76487679358575       -0.75698587277806
C           14.12311831046830       -7.14276485044135       -0.60288228050081
C           14.31277063136621       -7.69728044985564        0.66069120309249
O           14.31230647508124       -9.04086282290988        0.85720236721415
C           14.51072258615410       -6.87008717379218        1.76484907256284
C           14.51854812445034       -5.49624663608739        1.60037043454293
C           15.50121976876801       -2.75505066483250        0.40259434305094
C           16.74913136886116       -3.38061526778196        0.72345571691169
C           17.70462599777451       -2.42637193699153        0.61601513024094
N           15.68953237213449       -1.41414578291360        0.15019177721273
C           17.03817189411814       -1.22011054744740        0.24103185657733
C           17.71010094719737       -0.03880111672410       -0.08649369115227
C           17.02492867822596        1.14950672851062       -0.35190520302837
C           17.67935756455652        2.38422601028109       -0.64774751564555
C           16.72279520079686        3.34370941100439       -0.63084597624010
C           15.48605195707581        2.68928878138359       -0.32786304739773
N           15.67667777664621        1.33094116888941       -0.21888741849202
C           14.28720036764147        3.35358415806858       -0.11088760203295
C           14.28403341744480        4.83358808387079       -0.08812564905665
C           15.07083269505980        5.52882788628126        0.83407417121421
C           15.07393717960485        6.91176090919643        0.86289689011031
C           14.29116342580494        7.62392912194542       -0.04426792007544
O           14.32090848018395        8.98008058976625        0.00855012399586
C           13.50718968984740        6.94476659696224       -0.97415835119787
C           13.50412507995406        5.55881382840504       -0.98993535427196
C           13.09070779900751        2.66657388112314        0.04992747230889
C           11.81953243620057        3.29791710780046        0.25200911675731
C           10.87814861979187        2.33299156746378        0.12220260034365
C           11.57675849525732        1.10922102773746       -0.12472150652716
N           12.93285223903968        1.31343976481387       -0.11379319660803
H            9.87944092098840       -0.09901704016383       -0.51993954617745
H            9.94549426028760       -2.66327078718939       -0.95889710939484
H           11.81356424743679       -4.56732686870847       -0.55906534358494
H           13.99222144946812       -5.33485516772113       -1.74339775504611
H           13.97564473565575       -7.79060822217077       -1.46038489602472
H           14.16615043616382       -9.51806333476039        0.02933577842145
H           14.65520804092946       -7.31522054199900        2.74150680589607
H           14.66203683552032       -4.85184082395119        2.46046992262745
H           16.87071529936430       -4.42306091830624        0.96877528513202
H           18.76865209113866       -2.51679429696953        0.76430679003348
H           18.73707677669513        2.48838432960043       -0.82839970788469
H           16.83273555602744        4.40047105015027       -0.81193289834455
H           15.67138299078960        4.97475471965802        1.54674743650814
H           15.67664665507053        7.45294019415759        1.58170910725091
H           13.74315164304820        9.37183127618088       -0.66007802368073
H           12.90503376459605        7.50304570166913       -1.68294637366912
H           12.90590213503183        5.03240657846672       -1.72534048490956
H           11.67839291149268        4.34620311158577        0.45987928535860
H            9.80549550104699        2.42111373359160        0.19104193564413
Co          30.27173881742840        0.04295803015305       -0.08934785816133
C           33.62947460460775        0.02846145879178       -0.41833206741588
C           32.94933965206846        1.19258359839324       -0.70293683848791
C           33.59400523726593        2.41033078697382       -1.09011953725429
C           32.65368315904691        3.38215910467978       -1.03075241034130
C           31.42851618883154        2.75280651038119       -0.63290153880634
N           31.61128435530773        1.40250900286504       -0.47708988846366
C           30.26256354499742        3.44135368956315       -0.32205720058905
C           30.26540219304118        4.92363705729622       -0.37051889346469
C           30.45535890243340        5.59486379155809       -1.57812525372884
C           30.45777020601418        6.98058452270429       -1.62404038482703
C           30.27457093401824        7.71123911109590       -0.45246901464108
O           30.27491121491946        9.06911412390065       -0.45146919755501
C           30.08346592753697        7.05162614636051        0.76036330863240
C           30.07575789233499        5.66841334677074        0.79544005991655
C           29.08760835801854        2.78344090139755        0.00804472238069
C           27.84047555053667        3.44829704879379        0.24081085154407
C           26.88473162464573        2.48868485499159        0.27114551603279
N           28.89870156482187        1.42038674090504       -0.05161216454244
C           27.55030322008249        1.24143078627787        0.06815099327383
C           26.87802123714762        0.02602697750776       -0.09073746315608
C           27.56313824941885       -1.18788592067005       -0.18619074211514
C           26.90923293350908       -2.45217098671870       -0.30580649414762
C           27.86569426262168       -3.39945309391204       -0.15145227776364
C           29.10187992309646       -2.70855792340490        0.05861230883390
N           28.91117549952830       -1.34853606500046       -0.02669296046541
C           30.30010632840882       -3.33470535872851        0.37161519971298
C           30.30324057818865       -4.79619500247923        0.60555917918061
C           29.51158040500051       -5.35344680852400        1.61337507290437
C           29.50848178616072       -6.71810548663935        1.83926143283955
C           30.29626309946955       -7.55177787311617        1.04725440877364
O           30.26644939579687       -8.88650569745128        1.29297778722638
C           31.08514228164759       -7.01157621447846        0.03411665526701
C           31.08807539657167       -5.64208367186392       -0.17933373444014
C           31.49613872204028       -2.63113221391380        0.43620954013263
C           32.76680498577162       -3.22577404196899        0.73135502145006
C           33.70845958637661       -2.28917879397811        0.46611495841357
C           33.01046983834385       -1.11451950263029        0.04228699266813
N           31.65440040938311       -1.31580968685181        0.07912547260312
H           34.70799983846881        0.02359778022621       -0.52390639022697
H           34.63976372961852        2.49524055542266       -1.33958829455062
H           32.77095156455367        4.43660062574837       -1.22105698573385
H           30.58392720825659        5.02728652811888       -2.49307323885558
H           30.59995474554011        7.49823169315778       -2.56667991107847
H           30.41609885263325        9.42218250697133       -1.34020003443484
H           29.94412665379118        7.63273487043312        1.66355415325636
H           29.93746035203207        5.15455177883557        1.74011493576521
H           27.71950997569395        4.51491764282328        0.33733331394728
H           25.82103011098670        2.59937059275379        0.40762614291890
H           25.85189086289662       -2.58113207921972       -0.47206071022090
H           27.75590603310771       -4.47122127888384       -0.18142930921611
H           28.90719853222899       -4.70390625682783        2.23659063353783
H           28.90192975011621       -7.15168439998325        2.62472067552157
H           30.84825358941107       -9.36912448842080        0.69056700395137
H           31.69122826776858       -7.66475307558531       -0.58449601690206
H           31.69011151813681       -5.22554724757763       -0.97924632427667
H           32.90753614944211       -4.23286138730461        1.08917459584444
H           34.78090604595781       -2.36583833239331        0.55019483942939
C           22.90861065321938       -0.00659562782065       -0.14219834148853
C           21.67958520849276       -0.01904713835495       -0.13973440416546
C           20.33650559026918       -0.03051283272052       -0.12750897293575
C           19.11212815251900       -0.03523832767733       -0.11199532084369
C           24.25170054429648        0.00742392284738       -0.13420486623362
C           25.47602634878517        0.01923306269580       -0.11580483379681
