128
 energy: -241.795732333261 gnorm: 0.000916774687 xtb: 6.5.1 (b24c23e)
Fe          17.73643838876456       -0.10868038034568        0.04048828161946
C           14.34689912055127       -0.18775301825414        0.06127855047277
C           15.00177230030382       -0.33386681395122        1.26654146621168
C           14.32644575422986       -0.51861267201429        2.51554094491296
C           15.27981105951627       -0.51138414469468        3.47625605542076
C           16.53824558567248       -0.33540360997312        2.81025641271328
N           16.35508374848504       -0.23602868769691        1.45777040255447
C           17.75387838859071       -0.19844028143428        3.47136394129906
C           18.96164469572376       -0.03348886150594        2.80910740179622
C           20.22852264888473        0.04703553263827        3.47365656121148
C           21.17596637205772        0.07325942005160        2.50613101661584
N           19.13678599394612       -0.03401289862732        1.44540395704021
C           20.48600802925124        0.00974003190353        1.25585366314664
C           21.14568010744005       -0.04101885865220        0.02190108558798
C           20.46982933525670       -0.08133960544412       -1.20362493992777
C           21.14230516821708       -0.15389252999474       -2.46263294977493
C           20.18367646034068       -0.09750724460238       -3.41813834462901
C           18.92815073560127        0.01592444829292       -2.73734090046073
C           17.70582953942336        0.14281156408229       -3.38344497449592
C           17.69442665954919        0.22941126044821       -4.86169908537066
C           17.04048070325158       -0.74342941443419       -5.62251903290088
C           17.03715702997659       -0.66362756844257       -7.00285296229048
C           17.68357955169722        0.39221373263694       -7.64817708823146
C           17.65108011336978        0.43493635174654       -9.13006486054838
O           18.30192981889745        1.48597420321288       -9.65085399202257
O           17.10168144911539       -0.38398296625531       -9.82197407133393
C           18.33594977894474        1.36718346586175       -6.89303423698608
C           18.34195849898243        1.28311285419556       -5.51170638485928
C           16.49216279017766        0.17524510721686       -2.70495266407811
C           15.21851082453766        0.32876242330644       -3.34740275732078
C           14.27749998591790        0.22142036177326       -2.38044044164241
C           14.97748788720482        0.02007179598970       -1.14781286309574
N           16.33239253149809        0.03017375365565       -1.35328908700198
N           19.11967581360867       -0.00229368704507       -1.37667514646778
C           17.76122494378981       -0.24647437923515        4.95321746291161
C           17.41754660089114       -1.42329825049073        5.62273121730118
C           17.42683157345336       -1.46630463796319        7.00479525314828
C           17.77394668863505       -0.33229831495492        7.74145220899595
C           17.76463099466201       -0.42707436460818        9.22121674163152
O           18.11617822460304        0.71282759160013        9.83464402507375
O           17.47673489878667       -1.42167868451237        9.83668747794923
C           18.11593759268422        0.84550971925427        7.07655975402471
C           18.11194997626335        0.88489193213544        5.69294935351362
H           13.26339483404556       -0.22603291971498        0.06649642694784
H           13.25889568866090       -0.62527513561543        2.62421517257907
H           15.15350142102303       -0.60463863955096        4.54258714629477
H           20.36542913905791        0.06059573779196        4.54257273838006
H           22.24750627926912        0.12237441314773        2.61373614683589
H           22.21016298381473       -0.23849388462197       -2.58383125301908
H           20.30546572092480       -0.14040362370158       -4.48807885188819
H           16.55004448599012       -1.57156550644282       -5.12374735141556
H           16.53594372989604       -1.41777295160574       -7.59961783382733
H           18.23549284656454        1.44060870195049      -10.61851911135459
H           18.83690004480467        2.18967320411641       -7.38966563254027
H           18.83884954627981        2.04685257929003       -4.92423489729223
H           15.07557603351634        0.50012697297811       -4.40187093672078
H           13.20441531754516        0.27427228434505       -2.47275520568248
H           17.15798163891514       -2.30707667561222        5.05124201546345
H           17.16572721915957       -2.37725697452977        7.53214886041096
H           18.08661296231390        0.56708436201470       10.79422779163356
H           18.38355785345367        1.72846518843825        7.64482000736958
H           18.36842350173116        1.80227988422954        5.17531450892728
Fe          31.15197035853891       -0.10341681621145       -0.05264321584535
C           34.54143977726875       -0.17998460005213       -0.08269845287715
C           33.88643682949366       -0.18642021359819       -1.29669800921426
C           34.56159874016306       -0.22643324426827       -2.55874441024769
C           33.60819263080704       -0.10802246608916       -3.51211918415420
C           32.34988530737397       -0.00926897816129       -2.83013949002427
N           32.53316767781765       -0.06653181432060       -1.47523431241030
C           31.13429088787203        0.20370410224504       -3.47088008374543
C           29.92664824331692        0.29161211765851       -2.79384700059182
C           28.65974600171291        0.44890368309601       -3.44447322897812
C           27.71238090320745        0.36318773217733       -2.48031272731097
N           29.75161914401312        0.13341028417181       -1.43934342076334
C           28.40240900728115        0.15514260036596       -1.24586750285885
C           27.74280976672362       -0.03842292880527       -0.02610414655626
C           28.41877549083484       -0.22064167045887        1.18643470595503
C           27.74650944948125       -0.43899080242200        2.42858852979083
C           28.70522186737385       -0.49294816080914        3.38416905255111
C           29.96057626898277       -0.30058480090416        2.72103541992964
C           31.18288973763674       -0.24806957173852        3.37742866912726
C           31.19436741835720       -0.33246838250006        4.85580360334479
C           31.84929448590720       -1.38593267872882        5.49938452208977
C           31.85271337986825       -1.46580282451938        6.87971332775440
C           31.20512853744837       -0.49217176221507        7.64246575894963
C           31.23660494626484       -0.62127529623411        9.11933741476126
O           30.58542274953326        0.36244695462036        9.75788017964527
O           31.78766642430469       -1.51342887437641        9.71224114938066
C           30.55188955537689        0.56283134936153        7.00477308341213
C           30.54589460638859        0.63863498925240        5.62296798104327
C           32.39643614110535       -0.13693499243448        2.70711075720413
C           33.67012662844984       -0.05787815168832        3.36282150095506
C           34.61105878819966       -0.05349298653369        2.38984816796345
C           33.91097196762368       -0.11215534344743        1.14231713948206
N           32.55609143759519       -0.12573170708101        1.34770194614552
N           29.76890495238837       -0.16140255337835        1.36741288087591
C           31.12693051601680        0.32673057648171       -4.94840475333144
C           31.47007580115525       -0.76540571122488       -5.74888901832876
C           31.46150589466143       -0.64887351524447       -7.12671435927535
C           31.11475817757045        0.56248305306681       -7.72800121767225
C           31.12190974790020        0.63777849175791       -9.20894849293270
O           30.77429055352583        1.84208011967160       -9.68694934610816
O           31.41128376797435       -0.27904804033597       -9.93495573080884
C           30.77335343700936        1.65613883747511       -6.93197407669731
C           30.77705085281726        1.53597096156795       -5.55301810787849
H           35.62493090680457       -0.21773008764703       -0.09238061711220
H           35.62908460408027       -0.32042561105096       -2.67911354107607
H           33.73440808082277       -0.07783017242108       -4.58210592182769
H           28.52279702885851        0.58614241463760       -4.50462443205897
H           26.64084220965372        0.42468445799061       -2.58138859100088
H           26.67873256349351       -0.53782519158573        2.53925835325720
H           28.58357662784134       -0.65953123498122        4.44194910419322
H           32.34041002349453       -2.15060697400086        4.90846112495499
H           32.35442939035286       -2.28342707864042        7.38553375676457
H           30.65220558342766        0.20599797467376       10.71385936866311
H           30.05013789517244        1.32204480163215        7.59292444484911
H           30.04827969651707        1.46458316582540        5.12747567848981
H           33.81313949471414       -0.00856952970558        4.42997582812590
H           35.68414717201016       -0.01147600908079        2.48752996583213
H           31.72862265499231       -1.70935682829849       -5.28290758060273
H           31.72141308988219       -1.49347282310915       -7.75536913295613
H           30.80506607508798        1.80828665764452      -10.65689295330456
H           30.50657008379357        2.59886203167183       -7.39484383956893
H           30.52110072016140        2.38785852588187       -4.93326129127877
C           23.77089834683614       -0.04544539125513        0.00299437824699
C           22.54715341900735       -0.04647608403058        0.01277747591301
C           25.11761805071061       -0.04557053521385       -0.00635139095164
C           26.34134381503143       -0.04487013578619       -0.01755688219473
