181
 energy: -308.271246971145 gnorm: 0.000633051426 xtb: 6.5.1 (b24c23e)
Co          27.93294334600755        0.27449810131818        0.09338390064462
C           24.56934251554025        0.22731567219485       -0.14037047670802
C           25.22208455274403       -0.94798080516523        0.16575689311108
C           24.55792823294572       -2.18692361067286        0.43458671221665
C           25.52172801976027       -3.13480191776208        0.51381296215615
C           26.77245977109559       -2.47614921164723        0.27157418896689
N           26.58233904158596       -1.12444830507782        0.13130084070935
C           27.97806873951462       -3.13445654653313        0.07006812423638
C           28.00296326220850       -4.61463072569936        0.05168947096297
C           27.26581521360287       -5.31780683495730       -0.82345013574547
C           27.26350624906909       -6.82212442958971       -0.86623247151095
N           28.34980024338325       -7.38257282888850       -0.06077065062233
C           28.96731212687339       -6.65346792860051        0.91549184629480
C           28.86141983398921       -5.31337750996510        0.99396541500877
C           29.16244863704758       -2.44082162298050       -0.13600802041573
C           30.41810729309190       -3.06375427031747       -0.42906345681426
C           31.35600000901607       -2.08630134147781       -0.40118392867339
N           29.32291747647748       -1.08256471282275        0.00685456048824
C           30.67054837621705       -0.87071779172236       -0.09447025615187
C           31.32080189803292        0.32565538301752        0.21010712567632
C           30.61533895683252        1.49513078020492        0.49881603589955
C           31.23790389709538        2.71598618579291        0.90268421720995
C           30.26418662867633        3.65778918454372        0.92940179068498
C           29.05284549430617        3.01175390782961        0.52162208976096
N           29.27007749082724        1.66719539065084        0.32554428765055
C           27.87091447495087        3.68024575497704        0.23614080544446
C           27.83855086617037        5.15760887156344        0.32416585099676
C           26.97800522415648        5.79266153919567        1.13657603278675
C           26.91182299657277        7.29272066401750        1.24045964660651
N           28.07823574690243        7.92314245058301        0.61946802136240
C           28.82391636795976        7.26675828578961       -0.32005738908321
C           28.77109939399595        5.93110388626011       -0.47998055471831
C           26.72062760153939        2.99886847203841       -0.14019042103111
C           25.49639657156714        3.63349824782356       -0.53371210284516
C           24.56646099116829        2.65572758275833       -0.64710937217759
C           25.22473925295564        1.42513648543605       -0.32925069330621
N           26.55865757646789        1.63814462059413       -0.08522790230743
H           23.48890897392453        0.21125577119312       -0.22351415413560
H           23.49048336402373       -2.29742348001785        0.54286412128647
H           25.40907505824496       -4.18821114482129        0.71350549336298
H           26.62352599999408       -4.83027960238971       -1.54752873424561
H           27.38838311658082       -7.17156111397572       -1.90122009187489
H           26.29255339782505       -7.21164963444594       -0.50852884986780
H           28.30410728487134       -8.38191542460271        0.06995504756462
H           29.60466281865839       -7.22963729229497        1.57859420441460
H           29.39318757225990       -4.75180365461312        1.74875491562759
H           30.55299578225288       -4.11494451727326       -0.62617029725401
H           32.41956241299233       -2.16571145578524       -0.55960021217234
H           32.28651784971081        2.82248594619631        1.12982021870131
H           30.34886955470433        4.69985496891040        1.19189353945170
H           26.27464257227413        5.24985128609854        1.75726761537358
H           26.87931730289900        7.59838185208377        2.29568343118808
H           25.98555411763712        7.66678512461108        0.76608497252397
H           28.01281087791858        8.92628217941290        0.53120242723685
H           29.51409460060652        7.89538769830471       -0.87358868367097
H           29.40061148563655        5.42681105979204       -1.19928910339065
H           25.37770176447268        4.69202702549975       -0.69988403373254
H           23.52390129275396        2.74123304732876       -0.91008159062964
Co          54.63821447415332        0.17264697809087        0.14077009364695
C           58.00630070338899        0.23197355435580        0.12317055064497
C           57.33114040061567        1.35336857857561        0.55677004591674
C           57.96920657148966        2.53923239517494        1.04195290245180
C           57.00064458200934        3.47727093702058        1.16925789758333
C           55.77364715973096        2.86750015853672        0.74600321420965
N           55.97694163583037        1.54472079265703        0.44420431977056
C           54.58351831993257        3.55312683934500        0.54108236387930
C           54.55134589084049        5.02259333805660        0.71424941699913
C           55.35190951437493        5.83385511896783        0.00405986396374
C           55.34731164993700        7.32989121264367        0.16933342888764
N           54.17453301394071        7.78069335144276        0.92093124453918
C           53.49319286934983        6.93193581652028        1.74861982205836
C           53.61365256216759        5.59365298471353        1.66786416321532
C           53.41734825702800        2.89326875284034        0.17862121803827
C           52.17408107762719        3.54605038101614       -0.10211782347559
C           51.23571235500567        2.57376615506152       -0.20434442810929
N           53.25296059916001        1.52794268802648        0.16834595516589
C           51.90972542091441        1.33096673374178        0.00291441531248
C           51.25324821977396        0.11268835517789        0.18905916793557
C           51.95488229664844       -1.08384505846640        0.33837223892015
C           51.32963881436822       -2.35200700133164        0.54436175509690
C           52.29745750685942       -3.28976403485852        0.40052259567522
C           53.51099154959447       -2.59035359968050        0.10162423587397
N           53.29943873973347       -1.23217200792225        0.13249996160384
C           54.69622107946759       -3.20523177819984       -0.27873478527853
C           54.71874623215813       -4.67483733778896       -0.45389976491255
C           55.55445251176310       -5.45425614659818        0.25170366362735
C           55.60858309477077       -6.94929485251717        0.08677746016268
N           54.45636223972753       -7.44582556028732       -0.66768546578214
C           53.73599326177322       -6.62364594897030       -1.48860161543077
C           53.79998202421073       -5.28155537141397       -1.40354415159274
C           55.85986521702702       -2.47726686300480       -0.48979266187475
C           57.10393968234777       -3.04286598679209       -0.92510309569561
C           58.04077928650992       -2.07284588932797       -0.80111337973842
C           57.36627888795040       -0.91133181631859       -0.30641586425633
N           56.02038045198578       -1.14960189678525       -0.18373768495348
H           59.08983582783259        0.25056910134409        0.11855559497236
H           59.02473775360873        2.62574460556611        1.24631726868807
H           57.09568654240189        4.49417523394583        1.51442278822818
H           56.05442167740194        5.44605563938621       -0.72431410677029
H           55.33151286695372        7.81960020248675       -0.81441001881017
H           56.27075020091524        7.65944636300693        0.68072174763373
H           54.19719126725014        8.75455535719325        1.18445000774958
H           52.79406227158552        7.41697055580614        2.42227161244412
H           53.03285533774049        4.93869760858599        2.30159475752256
H           52.04599009143197        4.61195131788590       -0.19920169267521
H           50.17873703366352        2.67345065586445       -0.39239477985844
H           50.28133007021833       -2.48962697284886        0.75613076926268
H           52.20828022648946       -4.36102495565241        0.48170144029368
H           56.24502428764193       -5.03912961830324        0.97648882240151
H           55.61000034245976       -7.43919326815440        1.07067474571147
H           56.54539182471171       -7.24253443504333       -0.42232338969279
H           54.51802273647129       -8.41747277629760       -0.93324954599752
H           53.05560676769161       -7.13550941649573       -2.16160691443338
H           53.18936364717079       -4.64959262394911       -2.03255971447810
H           57.23135182877672       -4.05442027453398       -1.27548970045654
H           59.09699044117350       -2.12216687761680       -1.01415911410173
C           33.94664669110721        0.38412437502591        0.28489665745278
C           32.72634158461524        0.35209461577029        0.24706802634151
C           35.29602522109872        0.42899855955556        0.34070559015933
C           36.51457075961152        0.48242379163947        0.40602843110921
C           47.27943995985539        0.21471064989101        0.34635751168618
C           46.06371865034833        0.31496563232010        0.40629899788159
C           48.62790440673903        0.14552692914236        0.28439686064925
C           49.84729048380646        0.10645063060360        0.23197186533704
Co          41.29333916781034        0.68826397585868        0.64019817790234
C           37.91519135424679        0.55503314472727        0.49191010062143
C           38.58224469649164        1.59805571167304       -0.15873337057319
C           37.92557141730585        2.67457843952181       -0.82879472720236
C           38.89293619221204        3.39517805744602       -1.44856421509343
C           40.13422723714606        2.73083697137217       -1.18615286109179
N           39.93469620395636        1.67212213589365       -0.32915630968842
C           41.32466716360397        2.99376337314869       -1.84865579849185
C           41.36124730462969        4.02727495449119       -2.90623801674728
C           40.55395770935463        3.96787518933307       -3.97854290443917
C           40.61136234848841        4.97202632635129       -5.09725930126735
N           41.39374184316572        6.15026102187520       -4.71963448907523
C           42.30219938558537        6.10505593040172       -3.69938033185674
C           42.31284946803459        5.11922737104811       -2.78258279373232
C           42.48345380983373        2.27207668786175       -1.58421605539236
C           43.68923037447924        2.36837085068056       -2.34942804853211
C           44.61683161671823        1.60829754172592       -1.71687229048290
N           42.65814306867945        1.42035250756332       -0.52207440158873
C           43.97912400648668        1.06426602220207       -0.55964255833556
C           44.66618781387390        0.44413647315785        0.48513744155151
C           44.00814730471223        0.01980684196039        1.64347417939973
C           44.67528696554842       -0.42206896192092        2.82602035526179
C           43.71130090150448       -0.83932326667867        3.68384967963962
C           42.46049595853265       -0.69413747524938        3.00134074370446
N           42.65428221052692       -0.09187932259614        1.77864280610395
C           41.26204412128963       -1.25600414462304        3.41962627502058
C           41.21776011143628       -2.04665486731143        4.66851875905565
C           42.01712949119560       -3.10793327089041        4.86794966570634
C           41.99533720163973       -3.91644524286055        6.13690207434458
N           40.81339310028286       -3.61241896014614        6.94543163787092
C           40.12265951572906       -2.44425173419614        6.78512249733313
C           40.25669236039485       -1.66924178138713        5.69247369208108
C           40.09838158090736       -1.13463031797327        2.66761166035650
C           38.88532113167498       -1.84675133525901        2.93244324782169
C           37.95759584168466       -1.37906411680865        2.06128980730689
C           38.60117812751445       -0.36807893889108        1.28271801989484
N           39.92692007135913       -0.27557230869734        1.61107019479765
H           36.86139867125471        2.84763024240321       -0.81336375200411
H           38.78422105741038        4.28942480901984       -2.04051763968745
H           39.86570455306757        3.14408453957068       -4.12783753791729
H           41.04331578026579        4.50844554043686       -6.00345025395173
H           39.59663961825912        5.30396426446454       -5.35869800757398
H           41.59196888724090        6.78221360461538       -5.48105022163503
H           42.96356222467612        6.96366519850780       -3.64207366108916
H           42.99562019884066        5.13934883916901       -1.94513786552013
H           43.79921671867969        2.94076160104149       -3.25643970031785
H           45.64787530919198        1.44037209441340       -1.98380119716858
H           45.74341423585467       -0.39888309243305        2.97189445501117
H           43.82969817838666       -1.22035130569404        4.68513325666362
H           42.72821586808145       -3.43532544372412        4.11853549362660
H           42.91177204010094       -3.72422345581914        6.72513344395066
H           41.98297648781500       -4.99012565415497        5.90176324468907
H           40.82413825665891       -4.01553418260015        7.87032201866124
H           39.40706512581252       -2.22730003385034        7.57161194307542
H           39.66704734710643       -0.77262157919779        5.56488448492537
H           38.77082945827978       -2.60864648120359        3.68661405827108
H           36.92222927772779       -1.66268228001824        1.96093588202961
