177
 energy: -321.509476828086 gnorm: 0.000744668459 xtb: 6.5.1 (b24c23e)
Cu          34.85632491675450       -0.25205129049197       -0.17385478854716
C           31.44320357531624       -0.18411841518511       -0.13442344510989
C           32.09460293978220        0.65341057813877        0.75816513139700
C           31.44074748466878        1.53535057370341        1.68233111086714
C           32.41648050741341        2.17415546567457        2.37596219187278
C           33.67116708767777        1.68544228196105        1.87990475638312
N           33.45053471904999        0.76755578228050        0.90041429691706
C           34.93004863244504        2.09543262812759        2.34602196588667
C           34.95864030238975        3.06424013277343        3.37421057688742
C           34.97268960097469        3.89814908163950        4.25560173969725
C           34.98298105751797        4.87370633993188        5.27877779754617
C           36.18306295307777        5.36279890007792        5.80792827302497
C           36.13482078262714        6.31827484207789        6.80740964723299
N           34.99623183770627        6.80188732092233        7.29768365992373
C           33.85100137281638        6.34162564333852        6.80030343773605
C           33.78979667052602        5.38739922054959        5.80060879208948
C           36.16080577369141        1.61840270876521        1.86787443373551
C           37.44024206241667        2.04044899343551        2.35614070127713
C           38.37800296462670        1.36414077311393        1.64407677668594
N           36.32954262413978        0.69812609141542        0.87604266830842
C           37.67462890549468        0.52764090817135        0.71740971346189
C           38.28904535531704       -0.31870456441970       -0.21524898144279
C           37.61981456028200       -1.14019877777458       -1.13237967298964
C           38.26756587810016       -2.00247709822916       -2.07565461132946
C           37.28731551104206       -2.64162770651083       -2.76444719995829
C           36.03748341056828       -2.17108610337645       -2.24506968295280
N           36.26568205826380       -1.25867459012174       -1.25783285483299
C           34.77801863011305       -2.60037176293586       -2.69263639547789
C           34.74727115333658       -3.57174805917605       -3.71829951437678
C           34.72011533973397       -4.41022023923744       -4.59502526802864
C           34.68936066590294       -5.38825684457092       -5.61537262568649
C           35.86998372432046       -5.90525882004850       -6.16170216108088
C           35.78511039732202       -6.86260650923243       -7.15678737659524
N           34.62847770457498       -7.32292708321688       -7.62695912108587
C           33.50166506297393       -6.83652783421063       -7.11278314676754
C           33.47709789474671       -5.87789016236257       -6.11561319309080
C           33.54753006379759       -2.14115410416867       -2.19779195468654
C           32.26337147645962       -2.57985384213754       -2.66415607862241
C           31.33003571985869       -1.90228247477398       -1.94923664498493
C           32.03959186619658       -1.04692638859883       -1.04131628521679
N           33.38621337964866       -1.21495524032037       -1.21456079022895
H           30.35829068938751       -0.16229563529754       -0.12178282806805
H           30.37158035109337        1.64162085867568        1.77722743419944
H           32.30973305993180        2.91118099463828        3.15606712994993
H           37.13331025504723        4.99706083673343        5.43800480156806
H           37.05072404770008        6.71569055147376        7.23535550612666
H           32.94067533840392        6.75716254775316        7.22292860839165
H           32.83479123952367        5.04059625467892        5.42459548489771
H           37.59054517413205        2.76243633142822        3.14290821408982
H           39.45153431900169        1.42014361726864        1.72878892306818
H           39.33563913454517       -2.09991288694544       -2.18733678494854
H           37.39081449415065       -3.36785629152998       -3.55483718072679
H           36.83359293230826       -5.55883625468359       -5.80803716783148
H           36.68512427404010       -7.28090181319489       -7.59831626536044
H           32.57592971288875       -7.23371373901593       -7.51924106116753
H           32.53603084659724       -5.50956919659692       -5.72527044744006
H           32.10970175461753       -3.31226296465917       -3.44076769752302
H           30.25560119758556       -1.96588434042235       -2.01968442219705
Cu          56.69139483437360       -0.37433847663249       -0.23985108867851
C           60.10486762935308       -0.35619414056840       -0.18904385894537
C           59.49046847467100       -1.57910918869215       -0.41201203551625
C           60.18214781989754       -2.81859330704104       -0.62365911230872
C           59.23483266596207       -3.77579301618490       -0.79028132697853
C           57.95998442221904       -3.12665660566389       -0.67922901748168
N           58.14058049826771       -1.79714807335192       -0.45495658593361
C           56.71993617098966       -3.77723705423714       -0.77474580985776
C           56.72853793931262       -5.17019818831697       -1.01155354043951
C           56.73090321246816       -6.36458181226974       -1.22584918497856
C           56.72673408027074       -7.75558668800745       -1.47839702052119
C           55.52705693651679       -8.46737839270101       -1.59532503040904
C           55.57588067595772       -9.82735085466051       -1.84482921627026
N           56.71478195778275      -10.50175081876095       -1.98094213990045
C           57.85967203822795       -9.83226113190086       -1.87142255639712
C           57.92028148081467       -8.47263193683748       -1.62332932298408
C           55.46964460964373       -3.14988779354096       -0.65650859534632
C           54.20987222060493       -3.82715501287563       -0.74034930412460
C           53.24347443268364       -2.88407356986086       -0.59557020776723
N           55.26079274161204       -1.81655831758634       -0.45938361988262
C           53.90984958321474       -1.62726888800567       -0.42606560458820
C           53.25818221881320       -0.39325988243410       -0.28719473008288
C           53.89242896164526        0.84823665526939       -0.13340654163452
C           53.20752644876221        2.09752613321195        0.01683961359283
C           54.15882287302003        3.05138297931589        0.18914829802096
C           55.42786338587289        2.38814791949997        0.14216403389414
N           55.23957763096799        1.05270006188838       -0.06217560553440
C           56.66730134009955        3.02771098392234        0.30088664783097
C           56.65875265572555        4.41804102288558        0.55279321792682
C           56.65823284581325        5.60880138803168        0.78641494059175
C           56.65971133063343        6.99403712786716        1.06905768252883
C           55.46491811313572        7.71544443885149        1.17707466858281
C           55.52181548437318        9.06790497225083        1.46258006596769
N           56.66421302223516        9.72648931781954        1.64147845764506
C           57.80439356934802        9.04810846998069        1.53967048907487
C           57.85687308682214        7.69461968649426        1.25799037824463
C           57.91660212550480        2.39039704711052        0.23886711027350
C           59.18044603286694        3.05318148058141        0.38873738632924
C           60.14276954712285        2.10674808470276        0.24872271221956
C           59.47138137705461        0.86021422156264        0.01509837802394
N           58.11837914520488        1.06358281240546        0.01758744158904
H           61.18993666334871       -0.35076996628533       -0.17216832157919
H           61.25515860527823       -2.92725911052828       -0.63985384827799
H           59.37312925964968       -4.83009500880581       -0.97051702616042
H           54.57651965734771       -7.95802506958841       -1.49185324490043
H           54.66015263166990      -10.40378085124537       -1.94037113433942
H           58.77010929466663      -10.41312343574584       -1.98819391204270
H           58.87499472355196       -7.96711510735514       -1.54211094835003
H           54.09023285225846       -4.88815318456688       -0.89144515205547
H           52.17338469851304       -3.01685775269865       -0.60593403169123
H           52.13613930956646        2.21801326085753       -0.00457447187265
H           54.02340782778406        4.11110148828016        0.33581880397384
H           54.51209292569666        7.21860827025426        1.03972443489732
H           54.61021783356002        9.65164077574677        1.55295189666130
H           58.71793289419011        9.61581642680768        1.69176148781475
H           58.80821134613758        7.18147270964535        1.18515930645530
H           59.30198660105042        4.10863839250257        0.57410598793606
H           61.21349344448630        2.22764705177159        0.29702303231181
C           39.70659525069642       -0.34713129374567       -0.23308083607468
C           40.92017463615642       -0.37444941420215       -0.25564291989748
C           50.62874890517364       -0.41878404735211       -0.30754345300555
C           51.84330613457512       -0.40262387323145       -0.29986926075110
Cu          45.77543519329218       -0.43353296424266       -0.31036107968545
C           42.33751133739948       -0.39862541296595       -0.27623512796787
C           42.97771234542181        0.33575162939126       -1.28387427523228
C           42.30067402901521        1.09478810292948       -2.29332957565650
C           43.25926654520197        1.67937077413533       -3.05707840184714
C           44.52460057198883        1.28160146795629       -2.51460392409322
N           44.32705929003516        0.46057059331006       -1.44465155368773
C           45.77021316449571        1.70224722683542       -3.00669897099772
C           45.76924724046493        2.56768380745849       -4.12366752582980
C           45.77014411307501        3.30660242651124       -5.08613410935228
C           45.77537490963656        4.16756737558619       -6.20733633937268
C           46.97516347663483        4.59027750632645       -6.79173140886556
C           46.92636863188602        5.43254071627089       -7.88806259776821
N           45.78738222985695        5.86753253729025       -8.42144071496271
C           44.64261864981976        5.47027835097149       -7.87159935922159
C           44.58190040091019        4.62879756050646       -6.77513524971621
C           47.01728501527796        1.33540210449545       -2.47709737858837
C           48.27984896806706        1.79382117060858       -2.97630758336689
C           49.24114526141125        1.20813115724437       -2.21657771257046
N           47.21946938333134        0.48858899333140       -1.42803149096234
C           48.56865914325216        0.38657920663610       -1.25441884433138
C           49.21405004007367       -0.42986359536342       -0.31402082883741
C           48.57224391006586       -1.25696477857342        0.61969817900817
C           49.24850078847066       -2.08800711295814        1.57096632538191
C           48.28977369722744       -2.68985685204769        2.32143235307757
C           47.02532001791688       -2.22757153026920        1.83117392421633
N           47.22365482270764       -1.36659244593468        0.79245473370318
C           45.78050306947907       -2.59247942016715        2.36716322548175
C           45.78102939456183       -3.46861894548760        3.47592000139778
C           45.77798702837132       -4.21363145174918        4.43370800025999
C           45.76923477449947       -5.07419261113113        5.55527028256259
C           44.56833605798823       -5.46721458945759        6.15793222863004
C           44.61284407785167       -6.30753070043970        7.25601215473207
N           45.74874430070118       -6.76708036057793        7.77509465367688
C           46.89452556269070       -6.39805142601253        7.20793365800115
C           46.95940047295358       -5.56191964969948        6.10751374240851
C           44.53367065036473       -2.14867904914881        1.89873968498101
C           43.27154308822262       -2.52507929165025        2.46360559479701
C           42.31017543593744       -1.90920415238186        1.72844127723181
C           42.98217439653440       -1.15561912251126        0.71164799007090
N           44.33149147808604       -1.31326422516393        0.84089599237192
H           41.22941002927870        1.16499641131119       -2.39458559419844
H           43.13166302619143        2.32624951988379       -3.91036062825728
H           47.92530091385239        4.26048871105827       -6.38921456164005
H           47.84177710097254        5.77568490900966       -8.36155261045630
H           43.73212659528545        5.84377581774079       -8.33150387055428
H           43.62730123656697        4.32970586787964       -6.35929309806864
H           48.40393385649955        2.47558449735317       -3.80252212535377
H           50.31154204825889        1.31224063624745       -2.29587952113378
H           50.31935781573540       -2.18866577565059        1.64854484783162
H           48.41740804831421       -3.38383247489572        3.13689520812229
H           43.62049263675785       -5.11615374344736        5.76802854314554
H           43.69635527720582       -6.62778277965726        7.74330345106959
H           47.80246110357498       -6.79084094129352        7.65662367768843
H           47.91492051578374       -5.28643870665608        5.67772758526829
H           43.14768742225797       -3.17827083920203        3.31263571632534
H           41.24007784926008       -1.95610226824093        1.85290705170866
