193
 energy: -386.370713681472 gnorm: 0.000592103461 xtb: 6.5.1 (b24c23e)
Cu          33.25866883022561        0.01628154957274       -0.06227554817940
C           29.85575794250959        0.05840965621207       -0.19270572917640
C           30.49309951129378        1.28862578547624       -0.13597242475582
C           29.81935148609668        2.55460911541285       -0.08790557629978
C           30.77875596135052        3.51017780972174       -0.01745729355938
C           32.04913341905599        2.83674867863402       -0.03338870861929
N           31.84380848116822        1.48824087600369       -0.09707012758375
C           33.29411626812003        3.46683484866081        0.03217122941362
C           33.31113347912644        4.95144368453250        0.07917166284561
C           32.79416867030967        5.69284430347226       -0.98327657720059
C           32.81548627240965        7.08204092711641       -0.93982893535823
O           32.32278604837870        7.81223861128905       -1.97023860897225
C           33.34887515394895        7.73489563080289        0.17250726979388
O           33.35420855455311        9.10525391860842        0.18865705826296
C           33.86149095982348        6.99454792318109        1.23459270325818
O           34.36473941235527        7.70490881480837        2.29290050707554
C           33.84800023495650        5.60592901225221        1.19102317186456
C           34.52513246865933        2.80774469168057        0.05469022676090
C           35.80504638677476        3.45761281611842        0.06047960073600
C           36.74813795584712        2.48139115981829        0.06429526627298
N           34.70984332098039        1.45020742885431        0.04315996574662
C           36.05277920504436        1.22988366419199        0.05350676549572
C           36.68530223657111       -0.02585764851190        0.03963235624681
C           36.02418975022334       -1.26594082830146        0.00168807705630
C           36.69045896948283       -2.53299250351076       -0.03273246298084
C           35.72531203775920       -3.48584652350131       -0.08029200316785
C           34.46076094326425       -2.80634558081969       -0.06848405779835
N           34.67658463030590       -1.45386965429382       -0.02478181165617
C           33.21548145122147       -3.43461700675925       -0.12890469068575
C           33.19798209387717       -4.92005170099319       -0.15367252432654
C           33.69777209582906       -5.64425745965217        0.92855525725908
C           33.67902173238164       -7.03398069401941        0.90598002249521
O           34.15551186394780       -7.74766439731948        1.95530838953982
C           33.16591756611756       -7.70440344700218       -0.20545727046218
O           33.16440144495707       -9.07509950071826       -0.20184195590649
C           32.67002328797435       -6.98112680173662       -1.28689883455606
O           32.18617387907899       -7.70822856076555       -2.34319991702662
C           32.68020857198790       -5.59191301121380       -1.26403427256809
C           31.98525893987753       -2.77388303325749       -0.17053608160717
C           30.70013041247548       -3.41814531496636       -0.19319917140903
C           29.76254327471572       -2.43848002069083       -0.21819709852197
C           30.46484026964086       -1.18757542351337       -0.19999284005585
N           31.81043163617930       -1.41970035362546       -0.16848314020386
H           28.77098621697811        0.07145738445517       -0.22008550237240
H           28.74818725311246        2.68118377603446       -0.09913223595184
H           30.64478269083239        4.57772824692944        0.05039630353125
H           32.39164482869284        5.19687753745433       -1.85703806855779
H           32.42840214286420        8.75350305504013       -1.75435435941035
H           33.75858621049098        9.39232569913908        1.02277286169340
H           34.70095934149955        7.11067459063153        2.97647233026009
H           34.23697642002661        5.03617946903086        2.02680151555638
H           35.95987100888283        4.52438013248489        0.04686991906270
H           37.82098126187580        2.58998488756329        0.06712521279806
H           37.76048916683852       -2.66613784013460       -0.02633027452043
H           35.85455806108673       -4.55476369001247       -0.13146270944209
H           34.08657927637895       -5.13418329495248        1.80041583697222
H           34.05594621622262       -8.69228479852741        1.75170859434284
H           32.77638004592895       -9.37510260842227       -1.03910918024834
H           31.86712696576959       -7.12445445065572       -3.04379489867942
H           32.30483147854837       -5.03552069257777       -2.11491789691883
H           30.54172453605492       -4.48456345760015       -0.17825228686534
H           28.68879825861909       -2.54003532518657       -0.23835745736327
Cu          60.19099295630160       -0.04702728307247       -0.03333335544325
C           63.59266152109748       -0.07721871345125       -0.20343668667323
C           62.95316248425350       -1.30500077114148       -0.28252211637997
C           63.62422587186300       -2.56865966245967       -0.39060322059829
C           62.66324505344149       -3.52473386970307       -0.42243061609175
C           61.39458626794012       -2.85257697033802       -0.34464800462527
N           61.60239230552482       -1.50608734343991       -0.25214566290756
C           60.14911295466010       -3.48473539212761       -0.33834960159641
C           60.12965718450425       -4.96486132328542       -0.46453925180760
C           60.62533666325744       -5.57699266359321       -1.61567752760461
C           60.60238893784135       -6.96182306885635       -1.73405403985300
O           61.07425261798628       -7.56661426209296       -2.85171133191514
C           60.08953458983869       -7.74010019233583       -0.69514699525014
O           60.08295824262523       -9.10314500030175       -0.83818476238879
C           59.59830147560811       -7.12880828274588        0.45545393142096
O           59.11484627171077       -7.95789646722878        1.43382285409906
C           59.61263883576454       -5.74452937812086        0.57346041112904
C           58.92016307018881       -2.83159510395288       -0.22530025103332
C           57.63917989621969       -3.47692760572790       -0.27941509522297
C           56.69816395405119       -2.50668719337629       -0.15518354349185
N           58.73827963057920       -1.48131808451522       -0.07951873324958
C           57.39584111622926       -1.26259375735182       -0.03096611452966
C           56.76527956767293       -0.01309110818980        0.10373055274262
C           57.42865792816905        1.22221334051699        0.20425462628115
C           56.76525198804876        2.48551766137114        0.32414477407860
C           57.73221681355626        3.43620475642488        0.37784516015980
C           58.99499857373441        2.75836202924668        0.29674668961451
N           58.77650118672064        1.41005915331795        0.18642893979758
C           60.24070738038920        3.38823520727446        0.29346653143804
C           60.26151577212237        4.86710813044996        0.43670271998088
C           59.78702570208769        5.46386284159585        1.60460846683214
C           59.80991524067468        6.84717170745706        1.73965776877907
O           59.35921824299365        7.43711202423884        2.87365809286930
C           60.30055202515773        7.63911208308370        0.70024155133378
O           60.30642879626867        9.00025170878727        0.85956068187441
C           60.77027566068192        7.04296816066700       -0.46711256956149
O           61.23228459101226        7.88502328511090       -1.44479091409069
C           60.75722397240260        5.66003913823537       -0.60143055072909
C           61.46866118293154        2.73541124840021        0.16265551122259
C           62.75445692929264        3.37753673767099        0.19752356262743
C           63.68996693340858        2.40634273381213        0.05261857078288
C           62.98570600395374        1.16171686590260       -0.06210762073469
N           61.64085445517215        1.38936013199309        0.01041135243591
H           64.67704174073950       -0.08787083450059       -0.24363884265408
H           64.69488323355209       -2.69428955942191       -0.42866956453838
H           62.79495771367019       -4.59303704691670       -0.48274552577170
H           61.01252817987253       -4.98235594286502       -2.43297502788825
H           60.96995249440044       -8.52662132733315       -2.74582672666623
H           59.69494338165667       -9.48544093149181       -0.03505646554816
H           58.79390516412860       -7.44713950129845        2.18853079704782
H           59.23997069606395       -5.27606107536408        1.47685190194653
H           57.48244348888600       -4.53525427459675       -0.41177820662462
H           55.62520641930752       -2.61393552382610       -0.15335893881813
H           55.69566679880596        2.61829361857346        0.35718885245879
H           57.60558228369221        4.50398310128113        0.45343267779949
H           59.41507321875645        4.85819729422872        2.42087787114294
H           59.45471179327021        8.39891269533995        2.77582539591036
H           60.67235574216293        9.39401770605414        0.05164195381468
H           61.53090312483219        7.38496391026884       -2.21562079599045
H           61.11301814497779        5.20338233721615       -1.51758733973447
H           62.91441835744900        4.43566394795256        0.32925032953341
H           64.76360642541962        2.50881282305408        0.03185775387686
C           39.31353273359204       -0.04458094861802        0.04723356972194
C           38.09158640286473       -0.04037761992557        0.04948269824080
C           40.66339935474863       -0.04683913623087        0.04250262724078
C           41.88540965849644       -0.04283297833526        0.03131635611882
C           52.78721582801310        0.01176008509722        0.11125905534309
C           51.56530206494844        0.00977286690865        0.09216546296929
C           54.13709483965775        0.00882422107620        0.12047246918314
C           55.35903836288168        0.00156728564970        0.12108509255509
Cu          46.72557841868613       -0.01367821739364        0.01685276559168
C           43.29109724000819       -0.03488624562171        0.02013934588726
C           43.93174557820291        1.21336782432419        0.12156920971020
C           43.24652293584389        2.46053819161321        0.27741288824961
C           44.19642255144758        3.42939203681450        0.32714290044513
C           45.46873996551487        2.77881277005327        0.19572173747644
N           45.27442585822180        1.42820806055635        0.07762396622641
C           46.70515590636202        3.42866314421672        0.21340143142526
C           46.69396875051206        4.91107658806432        0.29103440837000
C           47.27530018927349        5.56380044407727        1.37852566789790
C           47.26534645555764        6.95302474792768        1.46949780760676
O           47.81847949813073        7.59865350751422        2.52947423654435
C           46.67441223963758        7.71036992847015        0.45306348771375
O           46.65255238484584        9.06771497716400        0.50992818083382
C           46.09895803950018        7.04951374846338       -0.63537536740292
O           45.54102970750276        7.85024421394528       -1.59894878104627
C           46.09853137986300        5.66437901361470       -0.72236116781978
C           47.94946515204160        2.79567800255660        0.16999041794616
C           49.21532990190074        3.47068835533157        0.13072508740592
C           50.17674191941983        2.51263362367599        0.09741590845878
N           48.15915799086167        1.44230683245676        0.14410415537241
C           49.50507801395762        1.24847347916839        0.10289473372336
C           50.15972639132390        0.00391064868995        0.06761653254963
C           49.51879145303920       -1.24595405410366       -0.00108658674349
C           50.20299751571527       -2.50379741518667       -0.00457290624636
C           49.25363682982143       -3.46951294549611       -0.09697505896713
C           47.98233238018818       -2.80578854572154       -0.15573873638336
N           48.17671611067922       -1.45184145857892       -0.08841388823293
C           46.74652505854769       -3.45046693625434       -0.24255605255807
C           46.75790726103828       -4.93029611534710       -0.37319239189705
C           47.36377211396889       -5.52426616625668       -1.48098602591705
C           47.36214342888791       -6.90783421419851       -1.61433626697083
O           47.93247073024060       -7.49688970021775       -2.69197855150478
C           46.75957644409048       -7.69835090689758       -0.63401112627859
O           46.78279364344929       -9.07642201332487       -0.80006026665356
C           46.18892046711377       -7.10814374425814        0.49215372747394
O           45.63236897495940       -7.88107091653505        1.46865622501522
C           46.17131431291119       -5.72326283686032        0.61351241831001
C           45.50218787942021       -2.81729034476856       -0.21617233846467
C           44.23708700103872       -3.48098391721945       -0.35482718048429
C           43.27551673940454       -2.52635105245320       -0.27366761033584
C           43.94625970214371       -1.27352677288251       -0.09864063006507
N           45.29183602562260       -1.47185790633048       -0.06891541191985
H           42.17615986391915        2.57117423737306        0.34734985233729
H           44.05150512023467        4.48959624394723        0.45802768594952
H           47.72435991011356        4.98577745388866        2.17838546621346
H           48.19640653456013        6.97179742889093        3.16013583682279
H           46.20199995499905        9.39657952594696       -0.28459062830694
H           45.16759205010273        7.31846817680216       -2.31368612012911
H           45.65612130088149        5.17591950057475       -1.58263695648399
H           49.34863497450859        4.54028791475074        0.11536629625202
H           51.24670449757890        2.64161202327293        0.06085124406126
H           51.27255266884837       -2.62349961591440        0.06227823592113
H           49.39723398573827       -4.53775912552103       -0.10952552543369
H           47.81541077675968       -4.91758788046549       -2.25517988344055
H           47.83512332204688       -8.45958788586350       -2.60019525648032
H           45.92260216215256       -9.46071565936169       -0.58548091494907
H           45.94813636506276       -8.79261865648533        1.39301339962131
H           45.72491987284702       -5.27495619687980        1.49162742836554
H           44.10482744814613       -4.53996710515734       -0.50662874697612
H           42.20603566428854       -2.64903879454984       -0.33627649347757
