296
 energy: -459.192776061465 gnorm: 0.000780699938 xtb: 6.5.1 (b24c23e)
C           55.64354037828743        0.13318125126643        0.13124019591009
C           56.26717234824950       -0.01618816603343        1.36356592621330
C           55.63622681995215       -0.09059157937972        2.63622847935698
C           56.60849984222806       -0.28633231614571        3.57749559100925
C           57.86349163035347       -0.34961478598360        2.90853872687408
N           57.60869300366558       -0.16080252701825        1.57935248310270
C           59.12659357084254       -0.57435745720989        3.47013623453428
C           59.17579275601094       -0.83313095419343        4.92603704847566
C           59.95435584739706       -0.03705084143247        5.76864545757254
C           59.99670499865928       -0.26194558492248        7.13240675249381
C           59.26075741037315       -1.30510199392389        7.71405020065330
N           59.33970659339086       -1.57464478489584        9.07780634214080
C           59.86333442367679       -0.51877351932940        9.94429763101372
C           58.24132638767524       -2.33935766939609        9.67130647345155
C           58.49456488910310       -2.11634134186393        6.86345135218849
C           58.44987492212975       -1.87754803304392        5.50203618573378
C           60.32940775994322       -0.56913675513914        2.75641038378616
C           61.61139410118351       -0.92312341744989        3.33550627567331
C           62.52959832541028       -0.75724311361102        2.35999666976018
N           60.48681269084198       -0.23469705078401        1.44563759395689
C           61.80904394309761       -0.30980407021258        1.18645923478504
C           62.44916884937946        0.01860715739810       -0.02774447889312
C           61.79659145996733        0.32079897678561       -1.23948738986351
C           62.41436709868881        0.68551786831044       -2.46284296262806
C           61.43584194212226        0.82344573879288       -3.40879465767185
C           60.18649334804049        0.54789121342493       -2.78999974027280
N           60.45380640303574        0.26872068381594       -1.47556285794354
C           58.92226334906612        0.56953115462970       -3.39435603859198
C           58.89035886548249        0.77151302373161       -4.85894456848330
C           58.16503810188297        1.81649818523789       -5.43486269567628
C           58.13991044716598        2.00303714364510       -6.80498753738051
C           58.84050837878931        1.14261212820711       -7.66385318498801
N           58.77207599362836        1.28834720931625       -9.04618344213672
C           59.83083522976082        0.66289544308665       -9.83982209286968
C           58.32215954162871        2.57924700695487       -9.56712224251054
C           59.55769087757263        0.08474859253986       -7.08438814460080
C           59.58541061622436       -0.08805285179584       -5.71306617749423
C           57.71069920989449        0.41784982806878       -2.71035364393279
C           56.40375279722599        0.39610121038291       -3.34809811365520
C           55.49527298969658        0.29369484188363       -2.35633919299226
C           56.24681287039811        0.22873414061019       -1.11622351525266
N           57.57735557019665        0.28892638952451       -1.36873874260740
H           54.55897138520935        0.16835527317096        0.15446146655747
H           54.57393915137305        0.00030759984731        2.79872557484234
H           56.47260708364579       -0.36966050613356        4.64365301703437
H           58.32128535717486       -0.13416307534207        0.85786534784474
H           60.51854815139141        0.78938288931356        5.35009324226880
H           60.61281009498925        0.38972809672081        7.73838009275535
H           59.28406424089322        0.40660767446658        9.84871872367027
H           59.82402251254122       -0.85972827361776       10.97841952690880
H           60.90590989913908       -0.32314173155678        9.69210472292592
H           57.26970034621520       -1.88687361905408        9.44449547090280
H           58.26150030225113       -3.36293316682568        9.29553238212088
H           58.37642554374386       -2.37268414694826       10.75178151732462
H           57.93006865098829       -2.95267416047339        7.25547741723550
H           57.85995217348768       -2.53186286929411        4.86907797947072
H           61.76605138820801       -1.27380800733769        4.34309250484786
H           63.59020758767073       -0.94282764990436        2.40159189307358
H           63.47290056918209        0.83295709094889       -2.59549360944858
H           61.56548186033993        1.10974088248218       -4.43973449652973
H           59.74537510956556        0.06254847231037       -0.77924400796518
H           57.63197952241748        2.51250900807424       -4.79621064650748
H           57.56476343049152        2.83193799152910       -7.19707164912940
H           59.69707125318775        0.93620964714344      -10.88589495451223
H           60.82440566094044        0.98477367745195       -9.50842718100420
H           59.75614025134162       -0.42226893549310       -9.76126910042363
H           57.28207617363750        2.74505938863200       -9.28434669821934
H           58.37792817170662        2.55929340525180      -10.65498880287983
H           58.93896818338536        3.40303548385973       -9.19071338372223
H           60.09718047702110       -0.62332991798080       -7.70029622230729
H           60.13780443054826       -0.92340167573714       -5.29600393211780
H           56.22752411167863        0.43844786344769       -4.41094572346199
H           54.41962253346016        0.24862385754463       -2.42784765958937
C           95.15327605719260        0.00885018055098       -0.05611422320937
C           94.55574358360967        0.17796537597632       -1.29864603925036
C           95.21786559522020        0.37454785784606       -2.54217471402246
C           94.26293976151159        0.49449290105754       -3.51313939639781
C           92.98711278169154        0.36511317413911       -2.89501587755843
N           93.21453409866474        0.18345662112198       -1.56002581701945
C           91.72951059201067        0.44197697444881       -3.50571588295430
C           91.71646799444052        0.61905278403559       -4.97657225112774
C           91.10821898710867        1.72821711031609       -5.56624273253538
C           91.09814626436228        1.89523134897789       -6.93932696507691
C           91.69640299197368        0.94959032388517       -7.78537305722291
N           91.63673558449612        1.07814383767284       -9.17087389868919
C           91.32706709603315        2.40196921203027       -9.71128919722286
C           92.62510377159451        0.33437270388807       -9.95384089922987
C           92.29641592616134       -0.17057272768528       -7.19093919576163
C           92.31039930614277       -0.32443123659063       -5.81650638156884
C           90.50640429730046        0.36108545715807       -2.83414465492505
C           89.21845531010042        0.40684071900577       -3.50028540180018
C           88.28439415926852        0.29983714589461       -2.53261474822130
N           90.33127594472730        0.20694593441498       -1.49158587555980
C           88.99922740111386        0.16818405482756       -1.27984822771002
C           88.34199799590712        0.01871196630781       -0.04022584847903
C           88.96992642952461       -0.14486626251500        1.21074874637244
C           88.31962325732471       -0.28539878655099        2.46383533187381
C           89.27989861961446       -0.40574395582324        3.43002907476986
C           90.55016712370454       -0.35991549834547        2.79368253241833
N           90.31101517208062       -0.19721185489972        1.45374195726603
C           91.80632593534024       -0.43518399545501        3.40788094066633
C           91.82276984530037       -0.61090799797806        4.87785419727505
C           92.44697730387873        0.32618659994719        5.70329208506215
C           92.45535534547157        0.17879009767807        7.07834460287365
C           91.83986304123108       -0.92407871079580        7.68909195134973
N           91.89114492759349       -1.10730935454392        9.06846710755548
C           90.89352099134875       -1.99917092107179        9.66174519489610
C           92.20401684601273        0.06199468036897        9.89068252960145
C           91.23112436534639       -1.87519694958773        6.85640913007409
C           91.21855378883366       -1.71443639246760        5.48277203325989
C           93.03103092576498       -0.35341973435163        2.73564248215914
C           94.32687198856698       -0.50267345258161        3.37902731540060
C           95.25375279672932       -0.37516436563739        2.40771755643492
C           94.52511518761011       -0.16099373094433        1.17065848191218
N           93.18961639017860       -0.16034481429287        1.40476401802129
H           96.23869202203423        0.00805342622822       -0.05365030982775
H           96.28828717399939        0.42390601917818       -2.66412227696929
H           94.42356922641720        0.66881858315183       -4.56476952985924
H           92.48392258996488        0.07709259015547       -0.86425439351793
H           90.65372816062016        2.48567184454199       -4.93686575599646
H           90.61482559392118        2.77558892936838       -7.34287822287364
H           92.03592282370414        3.15866773505485       -9.35672342956455
H           91.36706166435300        2.35665740653253      -10.79914149805986
H           90.31528243281916        2.68707031143881       -9.42157007830843
H           93.64623076368679        0.55097111368059       -9.62104866225325
H           92.43367655847791       -0.73554169586445       -9.86506699985294
H           92.52517473569839        0.60995332866797      -11.00306855056538
H           92.75268462252352       -0.94279940020869       -7.79691399834522
H           92.77052099354907       -1.20797729528440       -5.38703726029675
H           89.06695639977509        0.49517276698364       -4.56381314009694
H           87.21214434973160        0.30267345063574       -2.63626430657930
H           87.25172645665201       -0.29213694002985        2.60360983816202
H           89.12239001044242       -0.50725405844381        4.49131780282115
H           91.03711546407315       -0.11360942010652        0.74987759819294
H           92.91344939763545        1.19993004002533        5.26113843882988
H           92.94983632040956        0.93806231098281        7.67036792290885
H           90.99381025088492       -1.97023175697958       10.74614963873600
H           89.87540916547844       -1.70202481240971        9.38678034973364
H           91.07445935231208       -3.02279400436285        9.33223803287718
H           93.22239176509866        0.39228591492780        9.68381388828846
H           92.14696621235525       -0.22031361995139       10.94141808454228
H           91.50688749466293        0.88598645898249        9.70157525136176
H           90.76522135182263       -2.75942991049784        7.27208837717758
H           90.75107599136338       -2.47378744428391        4.86507856943382
H           94.48259073218914       -0.69633877683031        4.42818800155468
H           96.32840456186132       -0.42799607922468        2.48817266680069
C           63.85776778527082        0.04534593788373       -0.04020123473840
C           65.07594877065614        0.08534070623698       -0.04059881548519
C           74.79234950012594        0.17576003038214        0.03496045860187
C           76.01123068317929        0.18227456062385        0.03476330132687
C           85.71434520056481        0.05799819269666       -0.02847869110720
C           86.93288858258897        0.03635234804669       -0.03693212120621
C           66.48389067268850        0.11905206268705       -0.02958374306742
C           67.10698762008741        0.12664705125316        1.23483580257857
C           66.45952495938079        0.09440422850236        2.49540544349580
C           67.42176081323971        0.13848799753184        3.46734303837394
C           68.68765919801849        0.21736049405801        2.82768287987243
N           68.44727160801256        0.19570158321544        1.47889992257786
C           69.94186514327224        0.30325692088257        3.44731922326749
C           69.94595212318443        0.34588268973508        4.92817221997352
C           69.27879868825293        1.35180195677202        5.62939955439740
C           69.27953944898969        1.38276473895236        7.01214534196075
C           69.93914772615845        0.39302920513237        7.75639596693548
N           69.97455836983401        0.44881979730954        9.14772977382094
C           68.91433332421688        1.20986721507150        9.81119557954041
C           70.36241503143346       -0.76911438942639        9.85976340728555
C           70.61885274084622       -0.61003239891557        7.04964719878407
C           70.62199756546337       -0.62704160065360        5.66676263574019
C           71.17293322227511        0.34565036664303        2.78871751386851
C           72.44042197452592        0.54259417050118        3.46735473587064
C           73.39436245414885        0.50881549830697        2.51304858521447
N           71.37634452852515        0.22335342671403        1.44767661450436
C           72.70966775346415        0.29679752529558        1.25523864842918
C           73.38605328963892        0.17340986986605        0.02384486335804
C           72.76275758755573        0.05421941548494       -1.23496476589207
C           73.40725055271632       -0.12669820456411       -2.48404572077380
C           72.44480294965545       -0.14275009076033       -3.45742154142926
C           71.18297232571253        0.02924147105384       -2.82860892099057
N           71.42391591530182        0.12543530979071       -1.48401448759707
C           69.92993475107039        0.07713515846861       -3.45562472469570
C           69.94155349974545        0.06888459275344       -4.93689040482393
C           70.61218331977031        1.06696059717733       -5.64689278844538
C           70.62263634094181        1.08064763191409       -7.02939099743095
C           69.97180464819358        0.07905080445350       -7.76541194311689
N           69.93776728122839        0.12216321852953       -9.15677293236861
C           69.56953501963883       -1.10666183189576       -9.86024515458996
C           70.98022190637781        0.90066929143301       -9.82761703281570
C           69.29892363800053       -0.92295662020541       -7.05031423481324
C           69.28392785457386       -0.92228749063928       -5.66702711561437
C           68.69708487503810        0.13691577494322       -2.80293898043546
C           67.42411007004200        0.22393212396277       -3.49358739103544
C           66.47066789807120        0.21675128127805       -2.53880438842492
C           67.15975893241102        0.15007885535983       -1.26753424104895
N           68.49533944899278        0.11417156987932       -1.45535111642718
H           65.39314252775019        0.04580259687614        2.63772224967355
H           67.26645456046622        0.11076979560242        4.53341882487734
H           69.16759230420742        0.21773090133321        0.76480615815837
H           68.77016436857049        2.13841186276015        5.08241091094025
H           68.76405326523168        2.19644451645521        7.50605662171708
H           69.00375732795239        1.07586370489092       10.88865794577311
H           69.03178780820741        2.27143791570791        9.59105864093127
H           67.92102771874228        0.87834104266932        9.48905886713965
H           71.39770342745594       -1.01640324171693        9.62334907850571
H           69.71548530377304       -1.61371103028290        9.59714671085850
H           70.29485438324529       -0.58709864322873       10.93192244741412
H           71.15488444856283       -1.39253746912531        7.57104370203396
H           71.14060943016489       -1.42588806020216        5.14775842113025
H           72.56273094101209        0.70714412182377        4.52567404267935
H           74.45921270879623        0.63246871384871        2.62521773381977
H           74.47009022563867       -0.24310010048731       -2.61587117091113
H           72.59472695994938       -0.27909049054863       -4.51597158427318
H           70.70542702007546        0.22992864795473       -0.77554883916045
H           71.11466918239090        1.86131533039532       -5.10538315450125
H           71.13933227234071        1.88991528581285       -7.52909978225714
H           70.22599403708799       -1.94026404508258       -9.58669333048137
H           68.53628296338925       -1.36544704189238       -9.62706702063204
H           69.64066895498789       -0.93312666692741      -10.93352785428251
H           71.98137070617362        0.58784620772456       -9.51108917455444
H           70.88663842232998        0.76336134885053      -10.90429678703707
H           70.84484542874014        1.96035463665513       -9.60853394951079
H           68.77591485127330       -1.71791069322275       -7.56612045530617
H           68.77076461093577       -1.72095900265692       -5.14245747564916
H           67.29511375253554        0.29401894423756       -4.56142943459447
H           65.40134095521667        0.26043139535565       -2.66182768565414
C           77.41720591415429        0.18469113480136        0.03285405941329
C           78.05904254670479        0.02739351557717        1.27783066249445
C           77.43869482684308       -0.20069063142859        2.53152285166486
C           78.41607032274145       -0.21364986003314        3.49036692648989
C           79.66299814892655        0.01170887965274        2.84838742884398
N           79.39930318768909        0.12529855927892        1.50930985397925
C           80.92173822329939        0.12759240752935        3.45501818837916
C           80.94742506605225        0.11136185071084        4.93403141210262
C           80.19932427469226        1.02484220670567        5.67986102246909
C           80.22101658932316        1.01108768666749        7.06234813718563
C           80.98399925349280        0.06450724360533        7.76277025435022
N           81.04246685841362        0.07636097700800        9.15360468213429
C           79.95621038867277        0.75175030415207        9.86486882218924
C           81.52211774133686       -1.13694784268038        9.81640524491755
C           81.74104130553775       -0.84763985417464        7.01198487862322
C           81.72334910266424       -0.81839006013222        5.62968531692518
C           82.13638170055022        0.25392386138864        2.77540225366925
C           83.40681273663786        0.50025173054293        3.43116718871965
C           84.34572131102750        0.48969290919908        2.46100281914874
N           82.32049646254370        0.13994595112202        1.43113449326614
C           83.64913139852209        0.24228979344901        1.21674512366991
C           84.30700944991675        0.08700635510204       -0.02135833795963
C           83.65836051506710       -0.03508644005433       -1.26719500351686
C           84.26856561219029       -0.26653162849241       -2.52487115403074
C           83.29150589953693       -0.22804868938139       -3.48329239970409
C           82.05432238096874        0.03228728333698       -2.83669734926645
N           82.32180943323685        0.11245879628648       -1.49604706600938
C           80.80154533223748        0.20648653011870       -3.44286941863531
C           80.78128327215451        0.23107134061320       -4.92180527180155
C           81.56608255905505        1.13703535880552       -5.63880146078248
C           81.54908250017438        1.16423408963415       -7.02106706046271
C           80.75342012261962        0.26802463032121       -7.75086335684634
N           80.70143281557526        0.32529961559912       -9.14119465345428
C           80.16104241304934       -0.83997586971309       -9.84217387072202
C           81.82920988737462        0.95891141075168       -9.82646953169439
C           79.96060899106185       -0.63689912211323       -7.02916492866170
C           79.97461512163693       -0.64890880290313       -5.64643855126056
C           79.59077932827230        0.35412421960695       -2.76210739067829
C           78.32679737238048        0.64745801906857       -3.41092482784925
C           77.38779968588457        0.63691236384294       -2.44072221613438
C           78.07949463890755        0.34608330092698       -1.20278275386775
N           79.40397941520033        0.21467660868664       -1.41993370260171
H           76.38100408022009       -0.34666575693028        2.67600194520092
H           78.28539127553265       -0.37970151180329        4.54724300334542
H           80.10464330160308        0.25740369389594        0.79242085811161
H           79.60917185829643        1.77707568036886        5.16744990831097
H           79.63838234105462        1.75513033319511        7.59010036832656
H           80.09289507929229        0.60907530486069       10.93625831636403
H           79.99316876741018        1.82184908623773        9.65854998748551
H           78.97711876715071        0.35702355285379        9.57161667215304
H           82.57338348168392       -1.29544637880169        9.57384503531673
H           80.94132053862511       -2.01611756726347        9.51582475501955
H           81.43980004222446       -1.00623054643608       10.89490814116515
H           82.35598623556515       -1.59299382259416        7.49973693666267
H           82.30441524382225       -1.54844792143446        5.07664621398477
H           83.54050101977367        0.68092984293333        4.48553551195858
H           85.40653197327032        0.65451490156881        2.55465901524775
H           85.31897314092035       -0.45235428495703       -2.67335702291585
H           83.41620587338116       -0.38234541230490       -4.54264303153760
H           81.62199384541489        0.25768815920810       -0.77629480077656
H           82.18213524232064        1.85132795243638       -5.10305415510573
H           82.16046793118994        1.90119498952599       -7.52583395596706
H           80.70287115217198       -1.75529683234104       -9.57916217123632
H           79.10560037092257       -0.95809783181266       -9.59516471499862
H           80.24039927833272       -0.67366639559272      -10.91599918415437
H           82.78342804005476        0.51177969939087       -9.52682884522878
H           81.70121150368102        0.84079815767395      -10.90187041769483
H           81.84190631030718        2.02603655536552       -9.60219259991759
H           79.32084281706217       -1.34525665904063       -7.53953294909555
H           79.36587961565330       -1.37375662390221       -5.11685261303123
H           78.19747979103460        0.85547036394331       -4.46078653832311
H           76.33081090214446        0.82829333562994       -2.52929252451121
