136
 energy: -274.832747200846 gnorm: 0.000662895156 xtb: 6.5.1 (b24c23e)
Fe          14.47028256975667        0.06070924310185        0.04410678743796
C           11.08375334619925        0.16867470373131        0.08895496404343
C           11.72802014800133       -0.30418087692748        1.21355675528465
C           11.04716208896440       -0.76341590073885        2.38663597190879
C           12.00118453858641       -1.03407631724958        3.30811808799279
C           13.26377567843812       -0.72767105560492        2.69933335432186
N           13.08524839590038       -0.32893794816539        1.40257455676256
C           14.48336738105879       -0.77766765873828        3.36573540860098
C           14.48965927661330       -1.11451376849190        4.80854645128321
C           13.83192336046268       -0.29053333743811        5.72518355617270
C           13.84689564459459       -0.59123734746531        7.07715699328903
C           14.51935606146616       -1.72698494909900        7.49821121970635
S           14.55436338132292       -2.10525621501297        9.20987534100605
O           14.34499438052320       -0.92508255271240        9.99550381366863
O           13.20658539663765       -3.00841112563379        9.27801010299656
O           15.67203908186190       -2.94597805497082        9.52389723901605
C           15.17849908734991       -2.56451032933404        6.61313004275617
C           15.16229101179974       -2.25105946891227        5.26398656513160
C           15.69557883221419       -0.51267106065594        2.74369601741377
C           16.95857082731118       -0.49471427074482        3.42028779312797
C           17.90578948671768       -0.29181154579953        2.47320249008354
N           15.87086030304115       -0.28019701225813        1.40071668339090
C           17.21896444395760       -0.17863366381936        1.22484159901663
C           17.87733112196313       -0.06686189786459       -0.00626631049517
C           17.19596660188329        0.07497253733718       -1.22149878489724
C           17.85656824080744        0.14386605739317       -2.48710696061393
C           16.89745512912390        0.38604147925473       -3.41281380653437
C           15.65481660636806        0.47761462474630       -2.70514265248892
N           15.85002604650886        0.23704391574502       -1.36613597603912
C           14.44681720946128        0.82049376514924       -3.29630336279803
C           14.43515032871623        1.15629389383146       -4.73948677692414
C           13.69304430899462        0.38273624571849       -5.63517261864453
C           13.68092041109215        0.68945380755870       -6.98590945252211
C           14.41471127683477        1.77851796785333       -7.42715252587032
S           14.39293628034480        2.17712504600376       -9.13604618749430
O           14.74652710323277        3.55052530782565       -9.35066627941040
O           15.65358042702941        1.27870397121259       -9.62710480724175
O           13.20116291144316        1.66628909929956       -9.74175398914844
C           15.15442917238438        2.56836045293062       -6.56218593348217
C           15.16322795955638        2.25002777388568       -5.21406090147529
C           13.24686368276956        0.86673206333254       -2.59482611963530
C           11.99560355404082        1.27476839611475       -3.16618301488409
C           11.05247174293050        1.09287231579118       -2.21226041365859
C           11.72926943078620        0.58308817883575       -1.05782794821448
N           13.07574795813316        0.48317808274636       -1.29266744517469
H           10.00085259384433        0.21579406650666        0.10686072581824
H            9.97663275341317       -0.85795031350514        2.47482399426988
H           11.87480098137250       -1.40990097271933        4.31045978967943
H           13.32273512697002        0.59996385197004        5.37563191284320
H           13.35212269991327        0.04726803767595        7.79816878391172
H           13.07089510653338       -3.34324362701576       10.17275221610191
H           15.69841731553319       -3.44145489807593        6.97783052708610
H           15.66476846475707       -2.89674708164054        4.55331506394065
H           17.09300413992751       -0.61472090548400        4.48283736606014
H           18.97487290568686       -0.22408888097855        2.59366779141327
H           18.91761666227099        0.02097623349726       -2.63268076587416
H           17.01113299643389        0.49244705681899       -4.47926523907275
H           13.13412913809650       -0.47097015494752       -5.27017460940303
H           13.10940476818151        0.09710118975967       -7.68929374935767
H           16.07772128600230        1.69317887931744      -10.38831841698091
H           15.70618081777576        3.42038111377991       -6.93914684384521
H           15.72544610293951        2.86182857718989       -4.51830032157893
H           11.86925796882434        1.65440862684776       -4.16707228246538
H            9.99188597525484        1.27971455675283       -2.26671866695376
Fe          33.01488181949327        0.07261824766003       -0.01992803601135
C           36.40141330593593        0.18834965156286       -0.02165422799888
C           35.75714476259499        0.16459422122736       -1.24138674245984
C           36.43805593031334        0.17099995259998       -2.50110762134930
C           35.48411327969397        0.26041496463035       -3.45742273422946
C           34.22151733157756        0.32070531198550       -2.77856120576721
N           34.39994599326663        0.21200655024527       -1.42622871521069
C           33.00202898342969        0.52088005420672       -3.41636240191398
C           32.99603251620334        0.74102990413539       -4.88153881569806
C           33.65425788690592        1.84519621970969       -5.42866596206941
C           33.63974992877395        2.06534906071425       -6.79607263485045
C           32.96727503117529        1.16576951421516       -7.60721513291678
S           32.93253903938606        1.44705226205042       -9.33748347157022
O           33.14244658932910        2.83400160294811       -9.63104116833877
O           34.27996884162674        0.63258093622690       -9.73475191135771
O           31.81460654317287        0.78246753011740       -9.94012780457761
C           32.30767248950648        0.06066400753700       -7.09442211494477
C           32.32341328540647       -0.14659500652807       -5.72492694108144
C           31.78979190632599        0.53749624090089       -2.74049004173786
C           30.52684938406463        0.80430741918535       -3.36261108939389
C           29.57955949775160        0.64280018478194       -2.40766804424486
N           31.61441902615958        0.25724188449868       -1.40666147836441
C           30.26629706206835        0.28659138097303       -1.20581119427223
C           29.60788342127375       -0.06458378520250       -0.02061560257040
C           30.28913686721512       -0.38134749378867        1.16124179709262
C           29.62840742746219       -0.78451278158060        2.36283191487820
C           30.58738625190769       -0.90100302050724        3.31271539988684
C           31.83010675370327       -0.55468825593381        2.68898351886802
N           31.63504389957887       -0.28398091404406        1.35571576144304
C           33.03809329892648       -0.45449310437019        3.36505208688404
C           33.04979722345079       -0.67527075513081        4.83024832980883
C           33.79208084382203       -1.72474705904232        5.37707419679169
C           33.80436980474843       -1.93835883054941        6.74563976810427
C           33.07052243942022       -1.08920144244938        7.55779075562206
S           33.09186956672175       -1.34909607422197        9.29318547135690
O           32.73487795704074       -0.15229801934119        9.99863076681268
O           31.83353144214767       -2.36818231798806        9.41734105620856
O           34.28498452968825       -2.04423279928147        9.66918715208800
C           32.33065884644314       -0.03591798233251        7.04552453999904
C           32.32170426339640        0.16593439979022        5.67512685503918
C           34.23812275714362       -0.15277801925427        2.73021653738831
C           35.48941185085263        0.01521590628300        3.41187813518988
C           36.43264671312390        0.19786168403827        2.45820094573699
C           35.75587765392076        0.15036630427598        1.19710485639415
N           34.40932799264520       -0.02867085579602        1.37844621193573
H           37.48433607159908        0.23826089579174       -0.02089615278240
H           37.50856783185912        0.11531144577004       -2.61792772563478
H           35.61056599694678        0.28151815098509       -4.52768847734910
H           34.16347742352033        2.54336947948481       -4.77468250439818
H           34.13491547453286        2.92494083048317       -7.22996239455560
H           34.41539603552746        0.65191396874815      -10.68993526238133
H           31.78776465411880       -0.61933136190198       -7.75749059936277
H           31.82056788134188       -1.00905658488614       -5.30331340477812
H           30.39250550370087        1.08549471804364       -4.39429645138098
H           28.51048685860249        0.75034594793600       -2.49462788479043
H           28.56735311221601       -0.95248448807782        2.45264171290341
H           30.47355801793534       -1.19567713582886        4.34314087844381
H           34.35103299355754       -2.38332301219237        4.72264274556946
H           34.37606450642961       -2.74846216913976        7.18057935088491
H           31.40796282018663       -2.26426250869103       10.27700160961231
H           31.77892977262997        0.61666297366633        7.71049916151013
H           31.75938393991722        0.99133632663555        5.25444786258354
H           35.61571628244706       -0.00127856698456        4.48222473780169
H           37.49327580660012        0.35107186994100        2.57782337571201
C           19.27719547423543       -0.09624941828577       -0.02089883167626
C           20.50350313379710       -0.11809151164485       -0.02684346609582
C           21.84255631911315       -0.13456386409713       -0.03100398890766
C           23.07546874930856       -0.14264820975531       -0.03084072178294
C           24.40974770851956       -0.14302272486404       -0.02676478365478
C           25.64263632208898       -0.13564727267393       -0.02089848807453
C           26.98171549315391       -0.12003239195327       -0.02023653284030
C           28.20803354623305       -0.09815119271954       -0.01833953201042
