146
 energy: -257.710785815102 gnorm: 0.000273184661 xtb: 6.5.1 (b24c23e)
Cu          15.72453997195004        0.03687303495474        0.02382667088998
C           12.31764734371349        0.18344714484502       -0.07802602409639
C           12.95576474715852        1.05439239556132        0.79282431134530
C           12.28506327693200        1.97819054831277        1.66341392435058
C           13.24732445702732        2.64598897932688        2.34682601916130
C           14.51483184664378        2.14266204061631        1.89304858931305
N           14.30616923970222        1.17377015060074        0.95430217274814
C           15.76027504776494        2.57901670774533        2.34513703870870
C           16.99073137899940        2.07628201948179        1.92232578483360
C           18.26702127094851        2.58487479495179        2.33597284557189
C           19.21305131394686        1.85101043324424        1.69776103950825
N           17.18043926980090        1.04617529909509        1.03988693864022
C           18.52452396353758        0.88517481475038        0.89453840433743
C           19.15878538017243       -0.08167780518328        0.09449083067094
C           18.49129559383130       -1.01634135143105       -0.71702559300709
C           19.14280715432236       -2.04241237015512       -1.47497072102983
C           18.17451374919161       -2.72179940371706       -2.13978341973424
C           16.92149061098030       -2.11495048450868       -1.79307848933542
C           15.67874866998292       -2.52412753260055       -2.27688940518360
C           15.66080712020502       -3.63212291961753       -3.27402769043638
C           16.17204197864903       -3.43340278544779       -4.56366332779808
O           16.65810559404640       -2.19107733852543       -4.82520822311794
C           17.21560710271906       -1.89111000522244       -6.08837032609533
C           16.15151726255090       -4.46799810553988       -5.49853875113661
C           15.62322728620960       -5.69877351650127       -5.13950162182744
C           15.11247067135437       -5.91959434823932       -3.86936756344876
C           15.12901075614760       -4.88365157226322       -2.93594233258590
O           14.65932105686120       -5.00638050068368       -1.66571227539204
C           14.07200830525068       -6.21649820566110       -1.23348343845191
C           14.45064587421031       -1.97720224565672       -1.90351224188773
C           13.17411099263035       -2.37052545238074       -2.43437644333136
C           12.23430161348981       -1.61287480762096       -1.81655560721104
C           12.92869213891374       -0.74502905030737       -0.90787498349684
N           14.27060692029453       -0.98469127051353       -0.98392922448222
N           17.14621087222743       -1.08704239030830       -0.91581244255104
C           15.78100186425391        3.67484430788476        3.35569696164430
C           16.19282482665776        3.41686135773904        4.67006352664962
O           16.54208191057954        2.13137154264227        4.94123975857578
C           17.00035103653601        1.76957502527910        6.22788892774346
C           16.21621688423813        4.44094731037349        5.61634768095975
C           15.83215796462496        5.72013959228460        5.24341643646541
C           15.42258134788383        5.99987660904339        3.94845007802930
C           15.39455111746534        4.97463057216709        3.00351555065040
O           15.01664321128149        5.15197166017551        1.70935673282747
C           14.60261367043474        6.42307160610036        1.25224254920857
H           11.23391957481507        0.23202225190214       -0.11201549953920
H           11.21396441726206        2.08640139633251        1.73570712771604
H           13.12008221305418        3.41317115343741        3.09380019151474
H           18.41413473599492        3.40489669658934        3.02030791160879
H           20.28429445886989        1.95441588430436        1.75475693623781
H           20.20535743325702       -2.22301030282591       -1.48159120467766
H           18.29160089848929       -3.56409775659561       -2.80248459307396
H           16.47480708577908       -1.99619842689603       -6.89045402712261
H           17.54234949300954       -0.85081853892124       -6.03685807488363
H           18.08015815822283       -2.52939028155141       -6.30782042929916
H           16.54006951738967       -4.32284386276946       -6.49768499049066
H           15.60878024737418       -6.50386407309620       -5.86601453829648
H           14.70834928780372       -6.89057603335933       -3.61596301418541
H           13.75840665350910       -6.05034260609875       -0.20112799877437
H           13.19465258974321       -6.47580547031050       -1.83859858381598
H           14.78977910333443       -7.04541154424367       -1.26239355848369
H           13.02557565400362       -3.12965850533133       -3.18563715840625
H           11.16456637771591       -1.62598242724218       -1.95692301114104
H           17.22641021508495        0.70266242610514        6.18086864265802
H           16.23235812753821        1.94113553187478        6.99200286298760
H           17.91026820472239        2.31867491154149        6.49911218468653
H           16.52892937787529        4.25088790945278        6.63440354348658
H           15.85256578436732        6.51718177393589        5.97861383845495
H           15.13113499487558        7.00780215724243        3.68484861795439
H           15.40933419377331        7.16182418664507        1.33344842398791
H           14.33747130453349        6.29637023115173        0.20087849384717
H           13.72523569969536        6.78278586997342        1.80349490320668
Cu          26.63183782538008       -0.01828829012862       -0.03992337276720
C           30.03873322342990        0.10329918682883       -0.17046596322243
C           29.40063175853029       -0.63499433391089       -1.15629930035400
C           30.07134841133872       -1.36554719996404       -2.19437608682524
C           29.10909474838871       -1.94709881874565       -2.95254599086235
C           27.84158221671675       -1.56951510244155       -2.38981130077464
N           28.05022882500247       -0.77788447765934       -1.29741848249412
C           26.59614651068062       -1.95505189523825       -2.88596550276618
C           25.36568149069211       -1.60792936339114       -2.32829434562463
C           24.08939779653477       -1.94517825924546       -2.89047738909501
C           23.14335743594579       -1.41764053165721       -2.07343314539806
N           25.17595847800632       -0.88065652933423       -1.18335488061811
C           23.83187138534822       -0.75980521220298       -1.00325659575912
C           23.19759964124381       -0.10526297145120        0.06746543488223
C           23.86507407688645        0.56532802763596        1.10788674603678
C           23.21353812639238        1.16993058483320        2.23115183777704
C           24.18182768144100        1.73143503890122        2.99813380616347
C           25.43485890952763        1.47445746052052        2.34820023342867
C           26.67759598228195        1.89522717510738        2.82197886685222
C           26.69552364815393        2.72487971529483        4.06037256344675
C           26.18424569478530        4.02965150859263        4.04686822024543
O           25.69812594943679        4.46499590829792        2.85430779913339
C           25.14054929200047        5.75792995522016        2.73683942255164
C           26.20476113561790        4.80808483193824        5.20377011710777
C           26.73308860356321        4.27787723688704        6.37105487094762
C           27.24388741297197        2.98927235302908        6.40920575691277
C           27.22734891210962        2.21246288339872        5.25117870315443
O           27.69707565613371        0.93769354662290        5.19222803409852
C           28.28447381805925        0.33799867468233        6.32865751506716
C           27.90570534062864        1.60334315001385        2.22756604536326
C           29.18222978248595        2.07300279986068        2.69228811606612
C           30.12205463500563        1.56901943789641        1.85460671885689
C           29.42767299897246        0.79285518248484        0.86645811858378
N           28.08575519023877        0.83410228144333        1.11447261603106
N           25.21014769727036        0.75216533546843        1.20605722991145
C           26.57543167551045       -2.79966517046566       -4.11425634159584
C           26.16358698466199       -4.13734252772530       -4.04562020839221
O           25.81432685870391       -4.58839089729869       -2.81169398044030
C           25.35602734850804       -5.91337695107331       -2.63636121995868
C           26.14021697466033       -4.92854694060755       -5.19374974785554
C           26.52430049048938       -4.37767770086038       -6.40698491171387
C           26.93389052780772       -3.05610759068520       -6.49991474909687
C           26.96191697995494       -2.26640928835473       -5.35082429765714
O           27.33982770652834       -0.96018288989447       -5.34251185053098
C           27.75391894597594       -0.32714272754954       -6.53576710680093
H           31.12246423929754        0.14381633599449       -0.21368235651511
H           31.14245026846945       -1.42174947763235       -2.31173752350514
H           29.23634951080833       -2.57748747108697       -3.81807813944644
H           23.94229104247720       -2.50618097336786       -3.79933498081594
H           22.07211550473301       -1.45944333679585       -2.18385329536948
H           22.15098775559245        1.15081143369516        2.41085708263512
H           24.06473321643458        2.26771404714269        3.92605807413751
H           25.88132168014329        6.53699121637140        2.95475339948387
H           24.81374428275353        5.85469289059333        1.69979753067965
H           24.27602832576168        5.88444811178632        3.39986725312209
H           25.81617408950246        5.81770520419409        5.20202294369933
H           26.74755115902046        4.88266941917234        7.27117636768968
H           27.64804562948868        2.60052733509111        7.33433642117761
H           28.59809812641735       -0.66028025282372        6.01754635695833
H           29.16182505294180        0.90018755314920        6.67123097545963
H           27.56675116253908        0.24885807754970        7.15331271249472
H           29.33075432803216        2.70882799520717        3.55042862615996
H           31.19179161167471        1.70608253812132        1.88754531850247
H           25.12994186619631       -6.01839273352958       -1.57359483147592
H           26.12401059626033       -6.64538397359302       -2.91471698655370
H           24.44611924409790       -6.10381768367891       -3.21844384287654
H           25.82750788169999       -5.96327789534717       -5.15024704034432
H           26.50388226586024       -4.99218465211760       -7.30038984843696
H           27.22533288293927       -2.65198786721411       -7.46016920557647
H           26.94722245670701       -0.30253284958391       -7.27858736814929
H           28.01910163741299        0.69554408601566       -6.26097835762325
H           28.63128672080893       -0.82173892081274       -6.97012350494891
C           20.56969227269218       -0.10897560999560        0.10035406985042
C           21.78669093684936       -0.11485418775856        0.09360852428737
