250
 energy: -415.793930772927 gnorm: 0.000858545722 xtb: 6.5.1 (b24c23e)
C           31.84031592339527       -0.09396389819252        0.00044967156907
C           32.45381622516310       -1.16864344159346        0.63116966177266
C           31.80769808283110       -2.28691021162065        1.22886868861368
C           32.77303715389296       -3.10460579892615        1.74549869659877
C           34.04001150622836       -2.50720825248239        1.48841776200261
N           33.79691616856439       -1.34899036103182        0.80624665734692
C           35.30420800143526       -2.99637072552107        1.83712429660167
C           36.51654555428373       -2.38278580958663        1.51405716867182
C           37.81430077844509       -2.87984415686451        1.93497803701080
C           38.73208891568571       -2.03317540924967        1.42435882564797
N           36.66762633294017       -1.24343630559342        0.78348194598177
C           37.99357548594023       -1.01436334327908        0.70346989027665
C           38.62737376865508        0.04695290668975        0.02522143728482
C           37.98826906765278        1.10460436790862       -0.64912920214971
C           38.62908780786297        2.16219917798258       -1.34757336145675
C           37.65923094340791        2.98603298910556       -1.84784200936008
C           36.39483777915592        2.45958437487285       -1.46330707982467
C           35.13138489312212        2.97546905534478       -1.76919092312238
C           35.09473676647003        4.24602748772006       -2.53374568140609
C           34.49023902932803        4.29755262925930       -3.79073387415263
C           34.45731205790192        5.48567097778761       -4.50494177454479
C           35.02250805960686        6.63654966971308       -3.97254746636672
C           35.62448658595050        6.59398471586864       -2.72233637602816
C           35.66388382937733        5.40649810331285       -2.00710384286905
C           33.91696352492957        2.38066045439813       -1.41060109999816
C           32.60994406981573        2.95212075202461       -1.69559425826050
C           31.69943083118765        2.08796386728413       -1.20370288332984
C           32.44889638092848        0.99616109404152       -0.60750969284538
N           33.78062707037862        1.21062963750256       -0.74284493632046
N           36.64608281117087        1.31823576560877       -0.74799137931166
C           35.33823898043538       -4.26401657755708        2.60746919981732
C           34.72843106193370       -4.34747651704662        3.86009895864102
C           34.76059773173748       -5.53337199199503        4.57835876560438
C           35.39667362834327       -6.65028080542295        4.05384700952461
C           36.00359516654731       -6.57604449937894        2.80742049127867
C           35.97715619967360       -5.39087909509292        2.08799844906167
H           30.75520315405494       -0.11581381866782       -0.01193180965031
H           30.74006724954426       -2.43736395676729        1.24894659261003
H           32.62669813141761       -4.04438986732463        2.25279422695131
H           34.51864414097095       -0.71737097328123        0.47550192705666
H           37.97821518585771       -3.75038996149358        2.54914793848849
H           39.80555020845391       -2.06674404445011        1.52036251533508
H           39.69683366225302        2.26746012242408       -1.45299238661393
H           37.80303191684860        3.87472215517528       -2.44044685707339
H           34.06037098138641        3.39659147133301       -4.21404490845306
H           33.98899606729093        5.51262480453152       -5.48261597759999
H           34.99382039486559        7.56525431517862       -4.53106945168514
H           36.06464428308011        7.49075352845253       -2.30043861991149
H           36.12180194025081        5.37927340659025       -1.02446925104079
H           32.43761494439580        3.89284499143794       -2.19329938443215
H           30.62307890381365        2.15898579726200       -1.21924869282077
H           35.92634797695783        0.71838955690108       -0.35838133096684
H           34.24400648766854       -3.47212768178758        4.27859773471740
H           34.28798722258056       -5.58472062983399        5.55301127016251
H           35.41954892983981       -7.57710842114093        4.61575215497661
H           36.49935090191960       -7.44640756177323        2.39201437267583
H           36.43977221526188       -5.33876673099234        1.10872928786487
C           94.36810201934377        0.04520841453337       -0.08161800644591
C           93.74706127842778        1.07051563955362       -0.78321513379206
C           94.38573543334427        2.09386266861619       -1.53826319442830
C           93.41456749670229        2.90491408097925       -2.05447823715897
C           92.15131239162635        2.40892844563076       -1.62277723761418
N           92.40238842889350        1.29714101597057       -0.86990189992658
C           90.88352669282661        2.92815163880711       -1.90955605270604
C           89.67558443834110        2.36637332514468       -1.49006634091205
C           88.37423602141047        2.95659293633666       -1.74763436814898
C           87.46247409323247        2.12465745983867       -1.20304909248793
N           89.53269272189053        1.21218340855023       -0.78142864722219
C           88.20828720247209        1.03441475769426       -0.60458307400426
C           87.58176698547148       -0.04623709016814        0.04978345931206
C           88.22852265274821       -1.11305965926635        0.70198963526235
C           87.59584335624849       -2.20924390146004        1.34616877351264
C           88.57145997378980       -3.00827063249755        1.87478365681977
C           89.83129567798919       -2.41949097034230        1.57501555834043
C           91.09813357128999       -2.90396319715650        1.91654798048409
C           91.14320208267513       -4.13881065437360        2.73697068264398
C           91.76641505528669       -5.28944349247454        2.25149265902370
C           91.80774139312696       -6.44233668816378        3.02092208587921
C           91.23231993885392       -6.46009257914289        4.28423832509724
C           90.61143228566236       -5.31946476867246        4.77486200713062
C           90.56368530834230       -4.16604918813259        4.00646190164078
C           92.30835384882573       -2.31086216850623        1.54120353706346
C           93.61868069398979       -2.79962821247841        1.94155645072632
C           94.52334851583936       -1.97549772008653        1.37571670570100
C           93.76692242906557       -0.97648205707440        0.64162687485428
N           92.43682837927690       -1.20412867144085        0.77173576460287
N           89.57182643473918       -1.28204252880538        0.85647216259975
C           90.83989799218890        4.16932246576724       -2.72122790470594
C           91.44851622481615        5.33797345018123       -2.26100703523198
C           91.40714137867265        6.49687131764244       -3.02158746915437
C           90.76289440444971        6.50235511071459       -4.25127321402509
C           90.15697815935968        5.34335881632132       -4.71714133485136
C           90.19260290344303        4.18370627154696       -3.95766748659535
H           95.45323161628423        0.05261698133856       -0.10492294992212
H           95.45265580102215        2.18325576283894       -1.66694754079596
H           93.55459958699073        3.76679346496248       -2.68654821475818
H           91.68475651177093        0.72325483144739       -0.43991033974738
H           88.20385981536585        3.88805145084163       -2.26270115301144
H           86.38871299011750        2.22155004851843       -1.18609996500016
H           86.52932943785466       -2.36065693342643        1.38996792213414
H           88.43464982937491       -3.93019403398365        2.41605703076342
H           92.20439591659088       -5.28182576615283        1.25961566839361
H           92.29081529884363       -7.33169118645407        2.63158068232043
H           91.26775964192797       -7.36142442854581        4.88557496393665
H           90.16311895396029       -5.32683210116370        5.76222271912014
H           90.09112218629598       -3.27188548952146        4.39781618944010
H           93.79705077308749       -3.65066242416905        2.57896503224435
H           95.59982433813889       -2.00893804407768        1.43822012948876
H           90.28727502348119       -0.66227551096435        0.49088934934393
H           91.93915042484450        5.34041884049799       -1.29389194874369
H           91.87889063929900        7.40030240881126       -2.65117748325009
H           90.73284204450934        7.40861402848623       -4.84546052238662
H           89.65480631232359        5.34162162438745       -5.67822786907466
H           89.73062831421237        3.27590536853663       -4.32939820747082
C           40.03292858742262        0.06338856097258        0.01497299091530
C           41.25746948017134        0.07316009325936        0.00102556900910
C           42.60002873392185        0.08012109168207       -0.01338722657781
C           43.83074069340042        0.08306117868801       -0.02625228250805
C           45.16854084394483        0.08251278494055       -0.03930088203669
C           46.39935975578333        0.07723185320081       -0.04760847169466
C           47.74175937532952        0.07271193607103       -0.05298141356807
C           48.96656900015858        0.06300939419564       -0.05729452213578
C           58.63837830128953       -0.01861458518719        0.04934741804550
C           59.86359732227619       -0.02805270423664        0.06396573156804
C           61.20516649885863       -0.03295946492758        0.07537559086309
C           62.43654241328091       -0.03225741114757        0.08336165005696
C           63.77351682520882       -0.03578748253360        0.08199517626326
C           65.00491697143273       -0.03335109343754        0.07789833221657
C           66.34648502728190       -0.02757808135336        0.06676725998761
C           67.57173653959885       -0.02905269514498        0.05154034444929
C           77.24304680369025       -0.08343945278480       -0.00159131342974
C           78.46786937304122       -0.09714308796561        0.01178686261863
C           79.81013047762985       -0.10461499931748        0.02304251253543
C           81.04087560996476       -0.10886060837840        0.03762625852103
C           82.37859758906893       -0.10860936689802        0.04751666521210
C           83.60939763416835       -0.10412559238058        0.05704935792194
C           84.95187985251400       -0.08887452805176        0.06243158465692
C           86.17647119443724       -0.07008452121081        0.06099447015204
C           50.37117709827530        0.05705971068606       -0.05625467245648
C           51.00118666338860        1.21325699162424        0.44339447234212
C           50.35571344016162        2.36694868873653        0.95857340194078
C           51.32361029096626        3.26120532633324        1.32645697472878
C           52.58900358882667        2.68094146881166        1.03894717582031
N           52.34307373337164        1.44034548648778        0.51413142768626
C           53.84996838375977        3.24614155433985        1.26425528139641
C           55.07399929319586        2.62446877562340        1.01458937357324
C           56.36160275212501        3.26495120211413        1.21493477428101
C           57.29823851369542        2.35615460995443        0.87316165178270
N           55.24995168285212        1.35935510062880        0.54154764869658
C           56.58131781011134        1.16766758674118        0.45522175611078
C           57.23492002922161       -0.00616889091283        0.02710858245199
C           56.60370586162871       -1.17841206414834       -0.43320672656685
C           57.24709540941845       -2.37288171547373       -0.84798530294903
C           56.27931915705106       -3.25864025818669       -1.23643976489666
C           55.01626964596151       -2.62636607114509       -1.07666001673524
C           53.75630373394324       -3.17220504681769       -1.34994209437572
C           53.74175301735520       -4.54213555124976       -1.92212371576916
C           54.33391098310063       -4.79694986030657       -3.15980800099149
C           54.31695852336279       -6.07627637202608       -3.69489425145710
C           53.71499875385854       -7.11595695000790       -2.99931340435548
C           53.12693351657669       -6.87093313626284       -1.76584622551195
C           53.13716140357639       -5.59204100205748       -1.22975795779387
C           52.53240235392200       -2.53863651814337       -1.12961220800046
C           51.24674179316850       -3.12233336756974       -1.46861798987405
C           50.30981921235664       -2.22397436941911       -1.10104702446712
C           51.02487196714385       -1.08953559791328       -0.55080678472873
N           52.35586096033006       -1.30154090740293       -0.58856540260645
N           55.26316392173552       -1.37437708022011       -0.57949024667211
C           53.86550817115658        4.62397537658007        1.81718100357125
C           53.31113941735384        5.68201490448334        1.09576073175953
C           53.32936727741269        6.96860099615207        1.61317577088361
C           53.89457180431210        7.21278074354621        2.85737842231786
C           54.44473551599603        6.16459630899985        3.58259714360684
C           54.43343681095440        4.87762089013035        3.06632251997333
H           49.28738283660515        2.48711334257197        1.03842020882149
H           51.17634529541851        4.23364886941315        1.76710701945476
H           53.06096825167391        0.78334865369350        0.22741192917400
H           56.50696305257387        4.27650861218492        1.55768495478944
H           58.37161276943905        2.45777696581406        0.88552091088328
H           58.31387995266854       -2.52808372902089       -0.84196386559238
H           56.42496618434202       -4.26506151957913       -1.59339764321328
H           54.79292399804959       -3.98344265233772       -3.71069838114315
H           54.77498768712825       -6.26149964847062       -4.66018091761076
H           53.70408209785742       -8.11583799092384       -3.41807274050088
H           52.65811691364224       -7.68023950344731       -1.21717059280713
H           52.68817469866597       -5.40457592294868       -0.26078532455922
H           51.10279008447075       -4.08332414512853       -1.93513070060500
H           49.23756539545174       -2.29338290970600       -1.19099971938519
H           54.54604463397747       -0.69455551338368       -0.34966669142897
H           52.88092168584206        5.49539543752278        0.11798629530442
H           52.90117275917098        7.78432099318895        1.04122771561865
H           53.90640662698896        8.21877295791107        3.26120878992909
H           54.88460788552821        6.34955526171821        4.55630793989717
H           54.85281971032218        4.05778611481889        3.63872745144680
C           68.97521898476415       -0.02895568385635        0.02906096614823
C           69.61127411542867        1.12618707215357        0.52455432257638
C           68.97238325043693        2.27340758851795        1.06165287855280
C           69.94381994394192        3.17408461984683        1.40398181456848
C           71.20474247676177        2.60402041091798        1.07896413819048
N           70.95291662348468        1.36196101286584        0.55988374694526
C           72.46710332142364        3.17999635348503        1.26592970233291
C           73.68858898259127        2.56453341782267        0.98843777040509
C           74.97745661210145        3.21213960493360        1.15519495861644
C           75.91062508613051        2.30296741092155        0.80495141862609
N           73.85963775290490        1.29638467083545        0.52260453933944
C           75.19009898661000        1.10808090167278        0.41245788670405
C           75.83869286820494       -0.06859596952078       -0.01387669466337
C           75.20331692063837       -1.24273686897888       -0.46219872694338
C           75.84296811918347       -2.43541030243891       -0.88802752996145
C           74.87154204044602       -3.32087465992840       -1.26782738225610
C           73.60984972008592       -2.69074434736979       -1.08992830258672
C           72.34711074027173       -3.23763782732649       -1.34872885543109
C           72.32765787785016       -4.60358461194196       -1.93006940948023
C           72.90335436498424       -4.84795055311121       -3.17760750795838
C           72.88198747072104       -6.12333982481851       -3.72177880304862
C           72.29223803101308       -7.16954798481594       -3.02550091831164
C           71.72088796815581       -6.93500243394625       -1.78218549896614
C           71.73536585736008       -5.65999059797443       -1.23700343372553
C           71.12560073693889       -2.60843239652810       -1.10570398623490
C           69.83617642965417       -3.19242016072526       -1.42908321972616
C           68.90309238424933       -2.29993282685442       -1.03805205549118
C           69.62418781233134       -1.16849170762827       -0.48945528672089
N           70.95449304960826       -1.37608668208526       -0.55121513374557
N           73.86113751423234       -1.44022077548407       -0.59203967273861
C           72.48690923920346        4.56218743747834        1.80742671872131
C           71.89919619765671        5.60815998200026        1.09463567510984
C           71.92057787647784        6.89959775625942        1.59956469757124
C           72.52250281713101        7.16092255651612        2.82289549814692
C           73.10617650454782        6.12499182701651        3.53946270748506
C           73.09159087548113        4.83313570838954        3.03551100962974
H           67.90590076090756        2.38535520543942        1.17226827556868
H           69.80203871673160        4.14423162107980        1.85145844896176
H           71.66757412455232        0.71150322046208        0.25103992948721
H           75.12606785013227        4.22779426130677        1.48416102977636
H           76.98366463240860        2.40837266670158        0.79500402512631
H           76.90998675808932       -2.58889726006791       -0.89652733174379
H           75.01382619570464       -4.32570804252700       -1.63056418430900
H           73.35293043745040       -4.02931424390804       -3.72868596444338
H           73.32698459758116       -6.30041664778183       -4.69465830589855
H           72.27792019791067       -8.16636242816106       -3.45140610000385
H           71.26188069332287       -7.74950499270544       -1.23290304305702
H           71.29952867146127       -5.48068450669070       -0.26051011379610
H           69.68719115147408       -4.14958779694201       -1.90182712918697
H           67.82974254053752       -2.37174245229245       -1.11141315982165
H           73.14634974204586       -0.76173981310484       -0.35129497954219
H           71.44017285336079        5.40818254196336        0.13272374396658
H           71.46600287200215        7.70558502469334        1.03421742898037
H           72.53676047730575        8.17064656513437        3.21722755395300
H           73.57490545186550        6.32341368800412        4.49692554301039
H           73.53703841318040        4.02303115460504        3.60203556895827
