326
 energy: -544.544608189289 gnorm: 0.000667474173 xtb: 6.5.1 (b24c23e)
C           54.67954302235537       -0.10062926139257        0.06514289180048
C           55.29342409080654       -0.97630573016457        0.95187165620270
C           54.64676116553423       -1.90072899411923        1.81875172042685
C           55.61157798455001       -2.55293380145199        2.53457315993855
C           56.87831290528362       -2.03952235723930        2.13630102149733
N           56.63610613196082       -1.10240605345779        1.17197706051449
C           58.14232370235595       -2.40971641683607        2.61269315512320
C           58.17969508550010       -3.41700456433957        3.69839307474366
C           58.86509541686525       -4.62270344704607        3.52750972478797
C           58.90080525281327       -5.56822085021328        4.53660775050975
C           58.25972089012622       -5.32028329263472        5.75319528401602
N           58.26123413308233       -6.27935900602546        6.75117063890990
C           57.56724646013483       -4.11972902907047        5.93046513506611
C           57.52880328158921       -3.18344692545333        4.91245495774769
C           59.35271459602333       -1.89750965352635        2.13754702953722
C           60.65025136227552       -2.23646788156636        2.69302464945714
C           61.56603825720999       -1.56265695159108        1.96608138125412
N           59.50136765675531       -1.01365866401648        1.11200621028291
C           60.82620232359221       -0.80438356903795        0.97660263328743
C           61.45866663082025        0.01181796559798        0.01599198166983
C           60.81864942356607        0.82617293184553       -0.93805094052096
C           61.45911390230210        1.62463336854140       -1.92174147791396
C           60.48990685991523        2.28437161325779       -2.62614413650097
C           59.22682992421515        1.91518851729424       -2.08693395426009
N           59.47744086385279        1.02247872718906       -1.07776937932865
C           57.96396087612425        2.35287944340281       -2.50265499276973
C           57.92846272197191        3.37054817531895       -3.57775115435162
C           57.25584239515079        3.12029630690816       -4.77675792715257
C           57.22408318429508        4.06795638821919       -5.78409911386303
C           57.85605745012109        5.30157210467820       -5.60716953170053
N           57.85975521478373        6.23683655079867       -6.62724552302310
C           58.53495899144021        5.55844068058365       -4.41319745974739
C           58.56978658285666        4.60148067141273       -3.41479518854834
C           56.75102636557365        1.89614387519964       -1.97329683780258
C           55.44426358645644        2.39714266129147       -2.36876857619911
C           54.53550948162467        1.70231416255469       -1.65436311249053
C           55.28627387663934        0.78938157963958       -0.81145334419990
N           56.61703889876156        0.94211540830454       -1.02181163691634
H           53.59418537834726       -0.11865945999604        0.06679404033294
H           53.57929018822862       -2.04415301046367        1.87318007077206
H           55.46382257312160       -3.32975036364733        3.26715928037338
H           57.35927319479813       -0.58101487173767        0.68778184938945
H           59.35713828156333       -4.82688102810893        2.58289723085034
H           59.42739737480749       -6.50457883529079        4.38769597263123
H           58.08422720604305       -5.92834105800879        7.67890006750052
H           59.02032839364412       -6.94026091617495        6.70471107315935
H           57.06474391800408       -3.92272722958271        6.87120511465791
H           57.00715266980384       -2.24508495647103        5.06692489483165
H           60.81654720812935       -2.88808754866517        3.53554382529742
H           62.63873469758037       -1.55456198453398        2.07584481079533
H           62.52591964175663        1.67686344970825       -2.06841496805362
H           60.63465946552930        2.95768051937159       -3.45517578897038
H           58.75712186384990        0.57032471519548       -0.52431725324544
H           56.77256221209017        2.16117663040809       -4.92702667580810
H           56.70831590846736        3.85707438403196       -6.71454833906094
H           57.11012348758428        6.14319297228018       -7.29385132870437
H           58.02838337775964        7.18606700651522       -6.33461161993623
H           59.03019328131274        6.51278505816338       -4.27087311167242
H           59.08130988414558        4.81745688344112       -2.48305697638392
H           55.26977950655242        3.18417112459436       -3.08479346476579
H           53.45988994241396        1.78586629442938       -1.66621357075413
C          125.48363467917436        0.05612579440709       -0.11982408089886
C          124.86571754636533        0.70476487120151       -1.18162097838487
C          125.50897094851067        1.34084274929393       -2.27971582506977
C          124.54061032578316        1.87166951553907       -3.08542832755101
C          123.27486440269517        1.58597261342933       -2.49974375841202
N          123.52144986703276        0.87044364212566       -1.36226746524978
C          122.00812163888870        1.94304487140425       -2.97892081146042
C          121.96603910728848        2.76780412437702       -4.20887089478512
C          121.29570150373689        2.31593518703630       -5.34861056490842
C          121.25348191175139        3.08381901888485       -6.49851140981621
C          121.87273526918220        4.33606702779322       -6.52896135088482
N          121.86408567761160        5.09125217992841       -7.68896581578048
C          122.55122630257091        4.79254129983953       -5.39602947007214
C          122.59620018439196        4.01408771648886       -4.25309345556305
C          120.79951004052205        1.58042604619405       -2.37832627635353
C          119.49733269294347        2.01605886278347       -2.84904221840146
C          118.58570510539691        1.45575945583055       -2.02687976563459
N          120.65709727613761        0.79322982378642       -1.27590796542381
C          119.33250904864445        0.69096446657160       -1.04764374810064
C          118.70566745120198       -0.04304977032623       -0.01934491190525
C          119.35037139356803       -0.75735741529296        1.00872774712356
C          118.71491502714947       -1.52301201671800        2.02138664928591
C          119.68753646950275       -2.04076331259152        2.83174584758609
C          120.94776558900047       -1.59808105162595        2.34348189327921
N          120.69205098647218       -0.83539918534665        1.23391240463058
C          122.21279147684781       -1.88877970421614        2.86731987963773
C          122.25518874721439       -2.69262094803427        4.11014308923125
C          122.93901161918231       -3.91070859801551        4.14929813645075
C          122.97823032915710       -4.66601595857052        5.30759885279505
C          122.34244104078971       -4.20916883878868        6.46502923643258
N          122.34654382278012       -4.98001093024796        7.61437907093644
C          121.65218507346458       -2.99463952730802        6.43347563499684
C          121.61017659956723       -2.25011046816908        5.26822934821899
C          123.42270314678927       -1.47327285222414        2.29826951175899
C          124.73107660769756       -1.72629625839624        2.88071131717310
C          125.63600743866283       -1.18781582302176        2.03803590278962
C          124.88121947400572       -0.59256241812179        0.95014880914197
N          123.55178406167357       -0.77403276585271        1.14601958977210
H          126.56900924214014        0.06650669116629       -0.13407171216023
H          126.57678863497634        1.37522905511315       -2.42669391020406
H          124.68527358353879        2.40511791662159       -4.01088903142111
H          122.80022572924801        0.51172099513313       -0.74546728010615
H          120.82055790086315        1.34116513444132       -5.33635497608996
H          120.73831913942971        2.71753703146265       -7.37983072391823
H          122.02301791197372        6.07726131177540       -7.55557009259757
H          121.11136637487557        4.88362282020952       -8.32575732598609
H          123.03727401928813        5.76193212593377       -5.41458114767358
H          123.10633055183173        4.38610517598446       -3.37111751281098
H          119.32472084051363        2.67496755414820       -3.68456976359375
H          117.51147590595649        1.54605447824326       -2.05253816496273
H          117.64902392665472       -1.66058480349608        2.10670067864636
H          119.54698497820632       -2.68411410649193        3.68494537542136
H          121.40961643347718       -0.40308462981392        0.66134213869087
H          123.42518541364294       -4.27837679571824        3.25240308276115
H          123.50274187679622       -5.61515130128237        5.32172619704166
H          123.10209630438186       -5.64335864099830        7.67979261022455
H          122.17396348831656       -4.47344490625270        8.46814103661981
H          121.15395393690500       -2.63600587883888        7.32759261564119
H          121.09013904566429       -1.29831765043151        5.25895451042208
H          124.90904199130921       -2.23349891354969        3.81538273655117
H          126.71133951923171       -1.16877393566670        2.12391200178715
C           66.66051265306713        0.05185826638620       -0.03391829536069
C           65.43177178063898        0.04407378686313       -0.02606198058163
C           64.08794866692369        0.03721466951609       -0.01359583749599
C           62.86377899253859        0.02643338487880        0.00087285539105
C           68.00422192480625        0.05970634351276       -0.03615537856535
C           69.22867641465305        0.06703153385646       -0.03656870932252
C           82.68361041500613       -0.08055898532426       -0.01505194092566
C           81.45439951445604       -0.07753198183648       -0.01772933037716
C           80.11133624171090       -0.06602588845225       -0.01514819486784
C           78.88664400449368       -0.04745787634675       -0.01177600026746
C           84.02670158011641       -0.07645204105926       -0.01262028718530
C           85.25149749989640       -0.06568269854304       -0.01363633965538
C           98.70900124640337       -0.07267008102900       -0.01760746957446
C           97.47978135338822       -0.07465578786403       -0.01519898646005
C           96.13667999236982       -0.07000156146860       -0.01454380299153
C           94.91190870191126       -0.06049782770766       -0.00946419022656
C          100.05209789485603       -0.06540455896228       -0.01611228666709
C          101.27686250563436       -0.05334703480328       -0.01498312838610
C          114.73260006667205       -0.08631611850034        0.01089017831736
C          113.50385859675634       -0.08511272363054        0.01119971576428
C          112.16015368460711       -0.07647680759164        0.01234374655395
C          110.93579558780277       -0.06147844885007        0.01431487947173
C          116.07646082230541       -0.07962823431529        0.00466067926167
C          117.30062848118510       -0.06610294246432       -0.00508632506443
C           70.63290347714451        0.06632311395858       -0.03027147702051
C           71.25153245654302       -0.25183255678083        1.19484209835437
C           70.59365910039483       -0.59317991447404        2.40411221075745
C           71.55067380359148       -0.78904532163426        3.36274672069519
C           72.82096094251307       -0.56480971724593        2.76680928503397
N           72.58973261729086       -0.25631761024844        1.45265886088352
C           74.07488216310972       -0.65093201343637        3.38658607781616
C           74.07423493773977       -0.92965369629754        4.84214951524734
C           74.71259236853749       -2.06204785939214        5.35419833658742
C           74.70991652255370       -2.32461669814319        6.71248433363236
C           74.07793818788159       -1.44552699491847        7.59593504500924
N           74.04035150618935       -1.72436227811642        8.95071983213906
C           73.43299687338666       -0.31318353808686        7.09153367562483
C           73.43147002938628       -0.06376626575192        5.73079724224825
C           75.30363792496847       -0.49321146461555        2.74233614297299
C           76.58551645281463       -0.53007351412795        3.42231705218867
C           77.52856849949275       -0.36319759846863        2.47145560095445
N           75.48851580202326       -0.27923202955068        1.40980418991832
C           76.82076017587305       -0.20927562019224        1.21655117067219
C           77.48330891946905       -0.02028634769669       -0.01390539027264
C           76.86352865947384        0.20664284163627       -1.25889903182031
C           77.51924607033716        0.37089424231498       -2.50577426074036
C           76.56250501918832        0.60086686929016       -3.45711802383279
C           75.29468615434708        0.59247859667977       -2.81548314583383
N           75.52693665806491        0.33693152399106       -1.48987758748843
C           74.04199858757855        0.79331151317825       -3.41012187241939
C           74.03951775805490        1.11871167926329       -4.85589529030423
C           74.70691462433790        2.24962446310569       -5.33329611490310
C           74.69958457808326        2.56216242285428       -6.68102268818371
C           74.02365469853349        1.74126354069294       -7.58751009641486
N           74.05334646108597        2.02418273037790       -8.94176622403768
C           73.36734543136262        0.59948351719283       -7.12031150668282
C           73.37083823820848        0.30010865348877       -5.76978621769919
C           72.81429913470645        0.70979393823487       -2.74926313197548
C           71.53566850328042        0.98684783541724       -3.37809183649674
C           70.59202150195344        0.77722239713400       -2.43627198963513
C           71.29653997999213        0.38727624750092       -1.23185086287985
N           72.62804135504531        0.36863850320281       -1.44414322658139
H           69.52507780741966       -0.68005956113726        2.51720576562295
H           71.39174831068367       -1.07572180068529        4.38942274109818
H           73.31641032392743       -0.06504164735699        0.77106142672484
H           75.19709158121287       -2.75430145838966        4.67442073385469
H           75.19913273471413       -3.21303758121393        7.09662374208509
H           74.77096584013209       -2.33418979539450        9.28126173736997
H           73.87307103815799       -0.92865862859163        9.54554169782660
H           72.93780139103661        0.37135017369879        7.77158511284429
H           72.94522102015326        0.82769227475776        5.34961442197496
H           76.72447836555872       -0.65157330237609        4.48437224548854
H           78.60051383838170       -0.33143233731616        2.58431241776313
H           78.58613116211301        0.31342639062884       -2.64951504499562
H           76.71993270688837        0.75099758440397       -4.51266884969071
H           74.80150642610688        0.25061485075796       -0.78595116650230
H           75.21699296717921        2.90338157957703       -4.63412095286093
H           75.21405608034151        3.44778363585331       -7.03775836105698
H           73.30556769710539        1.61518021514087       -9.47898698539264
H           74.24075625730129        2.98692121236371       -9.17209994075882
H           72.85409246182257       -0.04989662030205       -7.82106663687783
H           72.86670693807989       -0.59261700914129       -5.41630769301323
H           71.39949308635066        1.31230795264777       -4.39670151649586
H           69.52192927363825        0.88056863527625       -2.52019444391484
C           86.65497824635445       -0.05083483379918       -0.00962960892120
C           87.28062137761648       -0.33876727093388        1.21967708373911
C           86.62995262879778       -0.66930285427414        2.43570903945804
C           87.59183022707340       -0.84042298915713        3.39432183419183
C           88.85788241417542       -0.61152038621156        2.79131485136940
N           88.61939224116691       -0.32422722394420        1.47348451415404
C           90.11448407203000       -0.67875682447971        3.40792727924937
C           90.12114726564015       -0.94001862742953        4.86679247886603
C           90.77031069208280       -2.06120554758458        5.38983420148847
C           90.77692476164519       -2.30618374536584        6.75136182622508
C           90.14348862700591       -1.42020196808396        7.62682840393597
N           90.11648564230693       -1.68106998213785        8.98555146384771
C           89.48666460522472       -0.29976882826687        7.11135764054066
C           89.47603558792289       -0.06790151080632        5.74753192842424
C           91.34024259965256       -0.51818182168087        2.75856747316371
C           92.62427605716617       -0.53930672287741        3.43515913731095
C           93.56343678221606       -0.37370511800720        2.48021934736445
N           91.51985729287480       -0.31432922890810        1.42371354589377
C           92.85102661494916       -0.23513053696379        1.22624023681859
C           93.50842598682836       -0.04572016122428       -0.00692039313178
C           92.88280636683422        0.17321729110147       -1.25037816851706
C           93.53362317319896        0.34966180913124       -2.49805002038307
C           92.57173029731048        0.56869159428403       -3.44682967800147
C           91.30549942214496        0.53932935192251       -2.80285071972402
N           91.54394168695575        0.28448864515664       -1.47835268308433
C           90.04882029502269        0.71813896900378       -3.39656599017141
C           90.04211958919578        1.05278478611032       -4.84035182939625
C           90.68532269654543        2.20256015320825       -5.30593647924491
C           90.67470005295451        2.52678436782301       -6.65079714786050
C           90.01980346315251        1.69887333281731       -7.56632306128269
N           90.04687190223527        1.99449901282235       -8.91788630660804
C           89.38829211178445        0.53846115091741       -7.11103297021429
C           89.39488598811064        0.22717843559381       -5.76311875780026
C           88.82301458221437        0.60761457885953       -2.73692314915818
C           87.53879411377986        0.85246384898097       -3.36761129783266
C           86.59970024097792        0.62713508162907       -2.42492144476999
C           87.31231242071698        0.26178228671291       -1.21749014781643
N           88.64354578713274        0.26888479814523       -1.42976804054995
H           85.56273594311052       -0.76667211685247        2.55306830043704
H           87.43895741169895       -1.11369243000672        4.42556960607145
H           89.34173575941094       -0.13461033684701        0.78684154933807
H           91.25628785269707       -2.75854151120127        4.71634802321620
H           91.27492447137614       -3.18584802181767        7.14425478734355
H           90.85468278953559       -2.27995765223197        9.31934364257387
H           89.94761344810235       -0.87824860597951        9.57035079284233
H           88.98970895737087        0.38961384870941        7.78519417782222
H           88.98088310571632        0.81477877316128        5.35747743979872
H           92.76732855893447       -0.65057538198795        4.49777890910420
H           94.63540010931555       -0.33278388825421        2.58986078458795
H           94.60095573856471        0.30814588333003       -2.64393374239003
H           92.72471924929363        0.72425804560735       -4.50224807289672
H           90.82152033518105        0.18695671033170       -0.77279649920304
H           91.17895175005926        2.86105784950144       -4.59942711747348
H           91.17016766901277        3.42680430632583       -6.99828155370916
H           89.30982661247472        1.57409758531812       -9.46106000507852
H           90.21411722735517        2.96307117576027       -9.13905559596181
H           88.89180743006837       -0.11616051943143       -7.81895224569323
H           88.91043838688059       -0.68001134414576       -5.41909441304947
H           87.39554718554660        1.16832095614801       -4.38825265180758
H           85.52763567073129        0.70614720140466       -2.50996161297474
C          102.68039433658711       -0.03806277674417       -0.00716218137314
C          103.30200215601762       -0.32574015897015        1.22424263845692
C          102.64704906882356       -0.65297137303564        2.43900515520616
C          103.60589865573048       -0.82897476544116        3.39966185800148
C          104.87446566515743       -0.60682045563638        2.79930300843828
N          104.64019178420199       -0.31726801619955        1.48112601759816
C          106.12936338189608       -0.68385549835571        3.41763891640032
C          106.13322456066854       -0.95000600059694        4.87565701601380
C          106.77354673306667       -2.07794918864536        5.39504843685893
C          106.77978779402663       -2.32640882351467        6.75594389384543
C          106.15506380033428       -1.43722112323978        7.63438213324433
N          106.12858925733086       -1.70071070342273        8.99274404861546
C          105.50635303179043       -0.31048168443122        7.12248997768378
C          105.49592348206578       -0.07510880951488        5.75922172456643
C          107.35710754558441       -0.52849859678325        2.77039838118711
C          108.64006798040626       -0.56131536655531        3.44862973879885
C          109.58139164281258       -0.39459336499962        2.49610273953706
N          107.53940035427171       -0.31747399356146        1.43735568897913
C          108.87145184136163       -0.24332790424979        1.24215678056159
C          109.53163116946310       -0.04331022552640        0.01268909653155
C          108.91056673389230        0.18892142268449       -1.23022825726686
C          109.56570106832376        0.37479855425756       -2.47441306730796
C          108.60692531199057        0.59666101608301       -3.42554814216551
C          107.33821601118515        0.55996453734195       -2.78661674531841
N          107.57224920900983        0.29922074930611       -1.46261304620175
C          106.08306356434625        0.73520685864770       -3.38454793242402
C          106.08037211971930        1.06953495925147       -4.82851858472477
C          106.71925359893783        2.22242390914130       -5.29226757335973
C          106.71417542534816        2.54452816373184       -6.63769708949987
C          106.06948916202529        1.71125161017226       -7.55560657108908
N          106.10331432850167        2.00432833088131       -8.90754904806869
C          105.44164150452464        0.54824186570961       -7.10191641155228
C          105.44254229073192        0.23911090821973       -5.75346360736762
C          104.85554804856052        0.62000249522418       -2.72896280988325
C          103.57269170267793        0.86085077766214       -3.36401982411059
C          102.63127119544372        0.63486613327674       -2.42384739395334
C          103.34102642316644        0.27267457341881       -1.21367334069236
N          104.67284510163691        0.28197783234263       -1.42208690356242
H          101.57911167534391       -0.74489056135858        2.55416349861910
H          103.44953755625954       -1.10135928085511        4.43062512322325
H          105.36511412068923       -0.13119700232149        0.79621761869839
H          107.25316901338064       -2.77740996849048        4.71920820156503
H          107.27109271650609       -3.21106563021599        7.14605659391806
H          106.86303706975167       -2.30597619711693        9.32342032375055
H          105.96870783202809       -0.89724328258941        9.57925973159288
H          105.01585185729977        0.38123622248028        7.79864896205416
H          105.00741911976863        0.81250192401544        5.37200377536036
H          108.78108606023685       -0.68040332348944        4.51066287289281
H          110.65339748387868       -0.36002422641604        2.60743626933882
H          110.63368551836810        0.33677065166049       -2.61645305855494
H          108.76354526629697        0.75864159509585       -4.47946596596318
H          106.84720746017173        0.19542029893753       -0.76063925238389
H          107.20531764052363        2.88477119593761       -4.58412040350766
H          107.20638377792919        3.44683941863194       -6.98388074465675
H          105.37253552765708        1.57820890384424       -9.45469290287535
H          106.26665835331571        2.97328573513705       -9.12984736145570
H          104.95275145073343       -0.11026806599499       -7.81151714977903
H          104.96114045561416       -0.67017248906119       -5.41067084477318
H          103.43203422384390        1.17478355296925       -4.38562896890660
H          101.55928486029808        0.71133947254398       -2.51217550210145
