154
 energy: -281.947473515387 gnorm: 0.000526638475 xtb: 6.5.1 (b24c23e)
Co          24.26807351726831       -0.02599828277596       -0.02145075902557
C           20.85903381765246       -0.04577271846587       -0.02865472986095
C           21.52007622638117       -0.88879695857275       -0.89436824775030
C           20.84764649850119       -1.77364666941389       -1.79929818307739
C           21.81049356890133       -2.44368098185050       -2.47293532126529
C           23.06666538234785       -1.96596149507634       -1.97581743028041
N           22.88138222208704       -1.01001858799245       -1.01113011492916
C           24.28407011595142       -2.43471879252928       -2.41997453434342
C           25.49331006450931       -1.98468812241925       -1.94227945794548
C           26.75318501035937       -2.48314641014860       -2.40379508590083
C           27.70842856714012       -1.80905656426098       -1.72187302177230
N           25.67209406262313       -1.01397611085641       -0.98345766853918
C           27.02663814177491       -0.90215630262888       -0.84997444410523
C           27.69652484695778       -0.02161029313330        0.00186134675335
C           27.01307853302978        0.86170530741978        0.83992711732041
C           27.68069370550981        1.77801266239126        1.71290821479293
C           26.71453277488743        2.45912369685486        2.37209995805222
C           25.46230727933173        1.95284869675704        1.89840008500152
N           25.65657167105688        0.97304414106091        0.95192226047728
C           24.24569892815573        2.39889173821256        2.36085375058124
C           23.03572744305789        1.91317343198882        1.91459810502655
C           21.77202111699190        2.37763040483597        2.40511803100389
C           20.81995116756282        1.68919737963490        1.73471510299879
C           21.50645226441904        0.80791533114028        0.83690361413466
N           22.86571328487060        0.94799003699522        0.95633759921555
H           19.77539729431937       -0.05292724514696       -0.03021883625727
H           19.77578298849271       -1.85377181049335       -1.88830002586235
H           21.70515821905782       -3.19681033994110       -3.23774898835004
H           24.28957330550514       -3.20200087516584       -3.18538035271891
H           26.86823737488287       -3.24962619811297       -3.15358189821003
H           28.78059577326638       -1.90054607023108       -1.78953605757720
H           28.75162099797926        1.87171525782197        1.79551408024228
H           26.81739906639013        3.23418287501113        3.11480297186912
H           24.23899798845031        3.17300086882848        3.11933957839491
H           21.65468512898882        3.13435213641910        3.16462024008392
H           19.74689865444276        1.75525534764650        1.82087830130653
Co          64.61644365647616        0.00209529436900        0.00053195901237
C           68.00920275874014        0.02581586375922       -0.16722747194601
C           67.33866166745587        1.22672956289464       -0.25170857430610
C           67.99321965577302        2.49358809479735       -0.39707048033287
C           67.03632413438882        3.44184210651283       -0.26893156232399
C           65.79862866756257        2.75110504123412       -0.05875503984807
N           65.98728836137543        1.39394455867459       -0.08489391519738
C           64.60228990406542        3.38459790757641        0.20452994324343
C           63.40700340982172        2.71654600988175        0.34530659733284
C           62.15443509259749        3.37260059520798        0.56912051079604
C           61.19700358633870        2.41904211105143        0.48208118904993
N           63.22259866941504        1.36411754926654        0.16939114783629
C           61.87005316781957        1.18451669813644        0.21709251896817
C           61.20096910608129       -0.01616521441736       -0.03311446901202
C           61.88858374470384       -1.21723592215133       -0.22195869416425
C           61.23228958834207       -2.47302438521347       -0.42181750503206
C           62.19471668734157       -3.42474550540312       -0.38155268472910
C           63.43590048645552       -2.74342383743617       -0.17173588786845
N           63.23961016651069       -1.38332436067342       -0.10936955363716
C           64.64002981219559       -3.38662664995862        0.00775193583269
C           65.84186794677288       -2.72352029410114        0.13706976316079
C           67.10557100358623       -3.38781877428752        0.26201492840306
C           68.05714666537844       -2.42864181718011        0.18620247920937
C           67.37122198387090       -1.18009939718626        0.02923008039655
N           66.01273231657129       -1.36698414759409        0.03570181788793
H           69.09073182767260        0.03283900091112       -0.23408368261166
H           69.05255346917670        2.61658642060866       -0.55805775064606
H           67.13620532918478        4.51512407991269       -0.30565002658490
H           64.59909124314251        4.46538826750040        0.28413808243140
H           62.04322190863996        4.42980256241882        0.75035295513867
H           60.12821863715743        2.52262718540327        0.57991729431833
H           60.16894229575793       -2.59126230088628       -0.55558264403651
H           62.09443788540961       -4.49400124776309       -0.47949122249134
H           64.64661518111591       -4.47026418747040        0.02116351013069
H           67.22474321144705       -4.45387516235742        0.37416302930734
H           69.12985229355711       -2.53313735122087        0.22676205691719
C           30.32247160212928       -0.01534687858364        0.01677080105440
C           29.09995058411671       -0.02135720950966        0.01275335602335
C           31.67085995852815       -0.01211560379230        0.01828857059500
C           32.89364715060129       -0.00743051165675        0.01506792107159
C           43.79096618763705       -0.02918401391021       -0.00428693459726
C           42.56756414424173       -0.02847901609608       -0.01161557278035
C           45.13797420461226       -0.03320375359915       -0.00250854212517
C           46.36136969079733       -0.03788771373318       -0.00531361475418
C           57.22721888232228       -0.02993088704467       -0.08457489811570
C           56.00455473717158       -0.03357835732588       -0.08118467470535
C           58.57564563649828       -0.02400529500473       -0.07801156569823
C           59.79800005252365       -0.02099899467857       -0.06099306428841
Co          37.73139704129549       -0.00625529730246       -0.01069762226013
C           34.29611503906623       -0.00501904605155        0.00709854736953
C           34.97829668610880        0.88967236069050        0.83536208144306
C           34.30909479745717        1.81476427543287        1.69683697275692
C           35.27479796108434        2.52262107962525        2.32929067261906
C           36.52611883614510        2.02183664572509        1.85001634606283
N           36.33426567172130        1.01639354486992        0.93233131685646
C           37.74400096716146        2.50694011091634        2.27214186690100
C           38.95648177241838        2.03010526214537        1.82837551244137
C           40.21339842267546        2.53957765753286        2.28392912778861
C           41.17179727493155        1.82756284385235        1.64541910420495
N           39.13858268118668        1.01713888844731        0.91590310453580
C           40.49269932502303        0.89062063759732        0.80435975958103
C           41.16636216279553       -0.02114435983470       -0.01327528036942
C           40.48382071823904       -0.92258410449378       -0.83478485852462
C           41.15358456574828       -1.86082692288539       -1.68181531424038
C           40.18819038823591       -2.55508747049750       -2.32934699011305
C           38.93642763348256       -2.03527453092386       -1.87133868436365
N           39.12851470512077       -1.03210719940709       -0.95017060477768
C           37.71906488587474       -2.49720376578748       -2.31756182218016
C           36.50613574274500       -2.01211683919137       -1.88149484039013
C           35.24957802536425       -2.50875341755287       -2.35125153080887
C           34.29098580999518       -1.81180518412910       -1.69635428048511
C           34.96965917629203       -0.89453489529392       -0.83388315065575
N           36.32448458324099       -1.01698104109119       -0.95048620809562
H           33.23815346533831        1.89743010507884        1.78977221612638
H           35.17115259333955        3.31305535718380        3.05543216811494
H           37.74777710862760        3.30993809996927        3.00026675473909
H           40.32533286229718        3.33742253627473        3.00067085636704
H           42.24371028415496        1.91370736846004        1.72260125026049
H           42.22460547411583       -1.95899226071401       -1.75733476478818
H           40.29215024025812       -3.34835499677906       -3.05235412885933
H           37.71445065582055       -3.29235862762830       -3.05424013132505
H           35.13777620110618       -3.29043476993508       -3.08559876689158
H           33.21909587938855       -1.89587289774883       -1.77599546211447
Co          51.18232884276932       -0.03807119430820       -0.04085820519252
C           47.76218505740076       -0.04090024877642       -0.01082126309684
C           48.44889153363312        0.80331985847161        0.86744175608722
C           47.79372604092505        1.67213072820682        1.79601459418996
C           48.76038073485712        2.43282366853371        2.36352826006496
C           49.99929898254566        2.02332411144176        1.77626478392283
N           49.80009641243600        0.99170115415564        0.88857058155419
C           51.19816060914223        2.66537910258551        1.99424015093119
C           52.39045808244114        2.26945550531205        1.42749756825358
C           53.63364969684010        2.94504377485385        1.63888783653652
C           54.59041837585387        2.18628562797818        1.05203590971539
N           52.57657797775514        1.12697063377899        0.68597178505294
C           53.92541422272770        1.05187256245116        0.48923106840639
C           54.60238016980342       -0.03650936984650       -0.06879887546000
C           53.91869599689728       -1.12916685499480       -0.60970234760598
C           54.57659570646350       -2.26382326330731       -1.18030520616008
C           53.61056724369777       -3.03168040687779       -1.73943892021418
C           52.36921545645104       -2.35997840289835       -1.50562388858436
N           52.56597314797543       -1.21315776923922       -0.77339884953720
C           51.16797196473570       -2.76142165592446       -2.04898238056542
C           49.97276915070773       -2.11713299628155       -1.81742997887947
C           48.72581258914715       -2.52543728640969       -2.38801923449166
C           47.76829221963782       -1.75894297891469       -1.81283017034629
C           48.43681856724279       -0.88891110239940       -0.89501078427598
N           49.78682886898645       -1.08306897442954       -0.92969543277858
H           46.72958393019706        1.69057028493984        1.96865502695378
H           48.66266419779427        3.21216436078542        3.10239997813771
H           51.20392352831224        3.53193843400402        2.64531272885355
H           53.74101433790434        3.87250140570133        2.17846027194651
H           55.65424684937175        2.35552383740548        1.00602137725191
H           55.64210077223413       -2.42713886711521       -1.15751806639069
H           53.71020301549704       -3.96217005975976       -2.27521892976866
H           51.16398433108367       -3.63170062583490       -2.69505226072147
H           48.61706079437373       -3.30655442697132       -3.12345997421904
H           46.70218059805298       -1.77467031655595       -1.97299774224805
