292
 energy: -503.656540034985 gnorm: 0.000338221651 xtb: 6.5.1 (b24c23e)
Zn          50.54597839848880        0.13341796991970       -0.05849236743630
C           47.13224434307880        0.19468711508374       -0.09809376502631
C           47.75584486221135        0.97626851910582        0.86768287778578
C           47.07579636987357        1.78184955554981        1.84407618018944
C           48.03051555285815        2.37914199916588        2.60030031758202
C           49.30603636969556        1.95050399159004        2.09160731218445
N           49.10360251372072        1.09877615316886        1.04481890779929
C           50.55159491624389        2.32956643571665        2.60107089517666
C           51.79427849045835        1.89863423402459        2.12822546890213
C           53.06782190203339        2.32565951982467        2.63703590958378
C           54.02252132788169        1.69729860387789        1.90475931722145
N           51.99963258991744        1.02505670893693        1.09417904868025
C           53.34356208071446        0.88222256949072        0.93964030883729
C           53.98262653526771        0.07852262821465       -0.02457587230387
C           53.33665426144757       -0.70621220488111       -0.99994192998317
C           54.00795497254590       -1.54623098279770       -1.94892949286694
C           53.04827059789778       -2.14861971828558       -2.69623903925474
C           51.77938331174249       -1.67997858178267       -2.21334582431423
C           50.53337805711609       -2.07567601980687       -2.70696857589536
C           50.52906037099887       -3.04380677642712       -3.84169434002251
C           50.94966735319284       -2.64695854115204       -5.11761550407123
O           51.33628151764211       -1.34872543000739       -5.23863876443750
C           51.80888593251847       -0.85564081690925       -6.47533665200129
C           50.94593178564248       -3.55461010142033       -6.17650881851858
C           50.52566074920851       -4.85724591577056       -5.95408971219415
C           50.10711292386160       -5.27401007634387       -4.69940886344000
C           50.10720818868479       -4.36476642292638       -3.64206177760823
O           49.72425616630692       -4.68057602470629       -2.37566994318919
C           49.27559551904326       -5.98430664500694       -2.06807264313906
C           49.29075248108779       -1.64994003635455       -2.22836960104847
C           48.01286412895173       -2.03796456425040       -2.76296578038021
C           47.06294480212200       -1.39996219495005       -2.03436843038690
C           47.74875882228672       -0.61171620137008       -1.04786183328089
N           49.09493935053794       -0.78278394579177       -1.19324315491781
N           51.99216872073703       -0.80731497946292       -1.17989524713193
C           50.55587731866014        3.27746710195117        3.75267776272950
C           50.94692356663885        2.84224080675144        5.02583496730725
O           51.29472948663278        1.53119277889379        5.12408341589672
C           51.73671155613462        0.99836343210903        6.35554734444149
C           50.95334311255588        3.72653477574151        6.10412792198507
C           50.57139879268591        5.04459406696346        5.90454112523685
C           50.18111313523679        5.49886983522818        4.65386234639918
C           50.17165124385271        4.61310839019993        3.57664299543624
O           49.81337698541128        4.96733984785145        2.31312847481709
C           49.40932276461478        6.29099115647262        2.02939410433274
H           46.04664733836593        0.21446895267341       -0.11032492019928
H           46.00370793473336        1.86799379074112        1.93213108115222
H           47.89080710200081        3.05118619190760        3.43214900561681
H           53.20941381405921        3.02176017139429        3.44833324549975
H           55.09365959253370        1.78067856464830        1.99896988309604
H           55.07746529078113       -1.66346940991411       -2.02248116621073
H           53.18339543193834       -2.85199393671389       -3.50231464270123
H           51.03568334650777       -0.90810736148002       -7.25169887371054
H           52.07432338804153        0.18940455523451       -6.30470013019936
H           52.69814122076795       -1.40215251175159       -6.81253202468210
H           51.26477388528580       -3.25656650644152       -7.16641951262643
H           50.52439590052441       -5.56364200211056       -6.77705389353465
H           49.78705058219285       -6.29716650449009       -4.55405471488621
H           49.02462257244098       -5.97676128500520       -1.00565387496157
H           48.38215415735269       -6.24919190812163       -2.64671198035370
H           50.05790954335835       -6.73203290641854       -2.24737421716852
H           47.86871843614762       -2.71204999592737       -3.59246520555879
H           45.99078599104996       -1.44856501305347       -2.14691987179506
H           51.97277241250303       -0.05043039906971        6.16577255290898
H           50.95578170764123        1.05786924810354        7.12361471368691
H           52.63767053944342        1.51058119753461        6.71477840669383
H           51.25025551723871        3.39858816762560        7.09139557863531
H           50.57774478964741        5.73314138005509        6.74246730455945
H           49.88968622757388        6.53297896837777        4.52700162999622
H           50.21120551464933        7.00992364539427        2.23764810829878
H           49.17450248909477        6.31562207483707        0.96355992401985
H           48.51557957334956        6.57008039714256        2.60090509794110
Zn          83.31946879875470        0.00190568783597       -0.10483147927860
C           86.73364550915467        0.05553771608155       -0.15584387754964
C           86.10842112292616       -0.64189856442465       -1.18303370352743
C           86.78659930464205       -1.34445001513014       -2.23721255341335
C           85.83039292836011       -1.89051724433394       -3.02942138452900
C           84.55582376526729       -1.52256682967081       -2.47301714445675
N           84.76030953998730       -0.77087125177316       -1.35261454977121
C           83.30909049683433       -1.89162964324463       -2.98677955803363
C           82.06713111301427       -1.55377662572341       -2.44202122850911
C           80.79300218943695       -1.91635745013111       -2.99714391524738
C           79.83936655229569       -1.39657417083789       -2.18305949797989
N           81.86314661475116       -0.81426914577642       -1.30798254808465
C           80.51926901224498       -0.70611660015956       -1.12578009699215
C           79.88176368234333       -0.04248774513873       -0.05938109742799
C           80.53008083782261        0.63413646772383        0.99228021294804
C           79.86108301047857        1.30483782419937        2.06903730824702
C           80.82235893027986        1.84615306816586        2.85975317379732
C           82.09005497514119        1.51768188339811        2.26990897949387
C           83.33657080640350        1.88890715251409        2.78099812235900
C           83.34157536248698        2.71486899414967        4.02327180796982
C           82.92148145636924        4.05085750686647        3.98672161837168
O           82.53560322295253        4.51869885916258        2.76946865697045
C           82.06843788878852        5.84447399475895        2.62801561724935
C           82.92530616060643        4.82448402351163        5.14703511268573
C           83.34598146490062        4.25751736486225        6.34057956921565
C           83.76527981862915        2.93710330121213        6.40166408343356
C           83.76491742091598        2.16528417142905        5.24009146474476
O           84.15030490368932        0.86128032423294        5.20073428459172
C           84.59800842585760        0.21292559779099        6.37325483581599
C           84.57831726112471        1.55997189079199        2.22980037062702
C           85.85660314663892        1.96647600174326        2.74953019521883
C           86.80541841518991        1.45371377509637        1.92668913915996
C           86.11844624552306        0.73242379374681        0.89096087848507
N           84.77269848592969        0.81802359053028        1.10122003576439
N           81.87512234574777        0.77563317229951        1.13952705316066
C           83.30337569438728       -2.72592373491847       -4.22328571902678
C           82.90997961873094       -4.06956174887360       -4.16734663491674
O           82.55840703237321       -4.53462107421713       -2.93865947787545
C           82.11479408504609       -5.86624206890638       -2.77776118217956
C           82.90541435726684       -4.85325915564230       -5.32081375665026
C           83.29141493682307       -4.28918190121351       -6.52735508748540
C           83.68368894277923       -2.96156932141508       -6.60791743330570
C           83.69132999243575       -2.17937508558297       -5.45331226998976
O           84.05184712423997       -0.86777437997578       -5.43390942504475
C           84.46419665508597       -0.22272197433169       -6.62115061212959
H           87.81922794455248        0.07252405867534       -0.17247908799139
H           87.85853202486507       -1.40789768871559       -2.34438767297637
H           85.96856018507030       -2.49090509775510       -3.91461728355279
H           80.65042752014030       -2.49504505489987       -3.89577747109597
H           78.76824682984132       -1.47317422156221       -2.28236885548832
H           78.79141155805544        1.35395034190176        2.19689295943629
H           80.68913869102002        2.41896518709360        3.76358053537778
H           82.84381363100259        6.57470542882643        2.89048349775762
H           81.80630708996205        5.96381443398338        1.57503434471496
H           81.17825757419536        6.02473458920487        3.24296304058872
H           82.60627262464010        5.85805105842174        5.12822780098947
H           83.34730768741761        4.85831615335967        7.24351419997337
H           84.08639727419595        2.52055747542939        7.34706391822300
H           84.85083175494148       -0.80751883750559        6.07907243466441
H           85.49015640635292        0.69944868158116        6.78633771612460
H           83.81449081822169        0.18230103768858        7.14036303280369
H           86.00178208644627        2.56867399858099        3.63242670069797
H           87.87752258931771        1.55136424620097        2.00165146882498
H           81.87436270761654       -5.98080708311900       -1.71908443881534
H           82.89639896714878       -6.58658349135097       -3.04892905161349
H           81.21614358079287       -6.06532134174769       -3.37430681168329
H           82.60708175456747       -5.89259306380858       -5.28661808931786
H           83.28682460445832       -4.89794564269337       -7.42491850667714
H           83.97829704672613       -2.54754486042768       -7.56299870358752
H           83.66658628967302       -0.21723242967172       -7.37417748700010
H           84.70017993524458        0.80604632264948       -6.34238596548811
H           85.35909452691217       -0.69453325511176       -7.04525518010949
C           55.39244742716600        0.05501225135388       -0.01175582797332
C           56.60899398988509        0.03051334992577       -0.00705317013012
C           66.32203479836764       -0.07426019558195        0.04403045642160
C           67.54016060734973       -0.07260301138036        0.03871375552137
C           77.25444739997117       -0.05888410589757       -0.03532971862265
C           78.47123183889931       -0.05443187193077       -0.04456253308833
Zn          61.46327991197070       -0.03813201361056        0.02317050875963
C           58.01836983249726        0.00802407256173        0.00144178307838
C           58.65836485927077        0.20359730461479        1.24101174044076
C           57.97977412625287        0.37289220432774        2.49251616081680
C           58.93483617791652        0.52625996014105        3.44513005121683
C           60.20689228117610        0.45866148768717        2.78304830286563
N           60.00219969310265        0.25217629497345        1.44521262794478
C           61.45058843810330        0.58236188991570        3.40797567939461
C           62.69805172298668        0.49219943540596        2.78402282752513
C           63.96267442625776        0.69048261510837        3.43302376866195
C           64.92569065247064        0.51584137754451        2.49211994373630
N           62.91539531951926        0.21194938776803        1.46151445090786
C           64.26093972661920        0.20692392742423        1.26068518700909
C           64.91315900759903       -0.06985896501929        0.04148810294665
C           64.26797054686617       -0.34055488741481       -1.18310360832632
C           64.93966220399342       -0.66701658006073       -2.40618259782073
C           63.98374792766283       -0.82761501983185       -3.35668904415291
C           62.71653741113610       -0.60393372939368       -2.72160428216478
C           61.47491992907213       -0.67446998611026       -3.35847936581946
C           61.48472570032395       -0.93876258349058       -4.82642294853051
C           61.04043687097835       -2.16784223947208       -5.33049946794000
O           60.62400503002331       -3.07298897509421       -4.40502405663445
C           60.14989708434467       -4.34149553745602       -4.80708590962323
C           61.05303415503735       -2.41404337219682       -6.70316169889718
C           61.50748527436017       -1.42838819484434       -7.56637411674360
C           61.95109064317059       -0.20355952384429       -7.09089417509871
C           61.94126134675619        0.04090853186033       -5.71792392035064
O           62.34675250458136        1.21127018206537       -5.15706533250917
C           62.84731286825912        2.25693767600140       -5.96449036918436
C           60.22727556189419       -0.51922569712239       -2.74953527962002
C           58.96237116877969       -0.56327691134660       -3.42684537397614
C           57.99994035260806       -0.37452188459747       -2.48799088897761
C           58.66716290518384       -0.21082570983339       -1.22959007572349
N           60.01165784610457       -0.29538293766771       -1.41633052468385
N           62.92491756874296       -0.32204759686425       -1.39787971852705
C           61.44812863350052        0.82973253711068        4.87856268672109
C           61.90224218736536       -0.15976376215819        5.76095924028982
O           62.31824947494430       -1.32055234034584        5.18800201101743
C           62.82681727190247       -2.37110648056376        5.98392086149357
C           61.89789043818124        0.06490335119178        7.13724208718152
C           61.44218345407118        1.27993131875179        7.62619530028192
C           60.98974696921087        2.27494853156874        6.77278790140785
C           60.99135261777855        2.04864807335782        5.39664835809187
O           60.57767439606913        2.96549288764208        4.48142286501355
C           60.06860173072769        4.21524491655122        4.89927142413016
H           56.90900522784185        0.36436855681198        2.62094198739528
H           58.79352353882822        0.67015859360429        4.50435418493348
H           64.09371098327510        0.93895608120758        4.47410913117317
H           65.99354624698346        0.59749849471277        2.61438851005790
H           66.00662518482658       -0.77173905574156       -2.51648604683600
H           64.12102826243884       -1.08190541927539       -4.39555554297783
H           59.26458333832294       -4.25503171600978       -5.44893004882026
H           59.87761575983077       -4.86865651482131       -3.89074109702882
H           60.92458990674336       -4.91232305544955       -5.33369783932462
H           60.71496546687989       -3.36113625618496       -7.10208716865470
H           61.51631719879552       -1.61918926548021       -8.63399717669531
H           62.29829965963298        0.54771236290043       -7.78765047147880
H           63.11491767240350        3.06616255337235       -5.28238816058002
H           62.08989334507233        2.61795294081032       -6.67109118474995
H           63.74029901951103        1.94412314994702       -6.51933890098348
H           58.83132003155912       -0.71598639561914       -4.48622946874697
H           56.93145983347141       -0.33995149667577       -2.63011162485744
H           62.06979275926422       -2.75138445695083        6.68074821471207
H           63.10850579576747       -3.16726172760949        5.29216112869172
H           63.71255482404006       -2.05505658483315        6.54844542437521
H           62.24265136524335       -0.69461237407522        7.82623507642325
H           61.43948152664272        1.45529259684651        8.69648815592119
H           60.64220618666726        3.21420983289019        7.18196847790118
H           60.82462591841378        4.79755069500867        5.44022935724369
H           59.18132481659121        4.09626409447480        5.53311694286988
H           59.78922679773473        4.74929058404745        3.98906830773696
Zn          72.39861035006521       -0.06511788318315        0.00231267918514
C           68.94899626767824       -0.07070613272111        0.02891741867660
C           69.60751750987180       -0.16840508448353        1.27202669961068
C           68.94948457100288       -0.31416641053968        2.53674788551234
C           69.91638999361028       -0.34078451213570        3.48938940922802
C           71.17666332290761       -0.21178177951303        2.81491510318640
N           70.95312523944949       -0.12346010197729        1.46683849633006
C           72.42596761837096       -0.18695719944550        3.44088798178411
C           73.66622723569446       -0.11941286814730        2.80054364062754
C           74.93974329157959       -0.07149631951394        3.46149214794724
C           75.89117772091102       -0.03814169319722        2.49368667042407
N           73.86617973533529       -0.09689086127496        1.44645951555049
C           75.20900967778178       -0.05538730730957        1.23283225582910
C           75.84432898123450       -0.06188354494194       -0.02437202366889
C           75.19001876284317       -0.06653059029752       -1.27183145605967
C           75.85262837479739       -0.07044781283856       -2.54328759002720
C           74.88610766020921       -0.03028699733089       -3.49589533120019
C           73.62307981788122        0.00534881521219       -2.81459986750545
C           72.37307410240193        0.07206320285384       -3.43495146197036
C           72.35912379615317        0.14410338387501       -4.92488987833296
C           71.90807983708559       -0.94393998500739       -5.68328856076025
O           71.51158471070066       -2.03628598330454       -4.97714830457645
C           71.00726201120187       -3.17502019518689       -5.64408172884051
C           71.89421882733838       -0.87614249042720       -7.07622080780858
C           72.32760631126224        0.28146515350854       -7.70482934519831
C           72.77562554965992        1.37232645132570       -6.97516035565189
C           72.79289836835615        1.30253104174814       -5.58243685468624
O           73.20389338996635        2.32120908739255       -4.78081370838551
C           73.66948722687783        3.53090085763648       -5.34256099783260
C           71.13353049365571        0.08574456716839       -2.79038927840830
C           69.86305808709160        0.21189306156689       -3.44563674632971
C           68.91086801910906        0.17928408183046       -2.47847606743184
C           69.58812194900598        0.03106510200957       -1.22423281554218
N           70.93064637438890       -0.00918376509398       -1.43944084038386
N           73.84396006421409       -0.02863660806302       -1.46404913055950
C           72.43536070925359       -0.24129463007010        4.93123839876442
C           72.91669595360231       -1.37549393413131        5.59834638380319
O           73.34714832506911       -2.39304526493836        4.80544482442199
C           73.87769594712748       -3.57097291823070        5.37704572367564
C           72.92390080500111       -1.42541251976227        6.99199781244051
C           72.45187611035860       -0.33949178864989        7.71378239603798
C           71.97131236091612        0.79425339152634        7.07608960851795
C           71.96158283575230        0.84255549313846        5.68239949735219
O           71.52087245290203        1.91271026625842        4.96848888817600
C           70.98239700668496        3.04044397786989        5.62733215785230
H           67.88333528012788       -0.39646590823166        2.67277795948764
H           69.79056981129628       -0.44397544065094        4.55533208495704
H           75.08440801015090       -0.06578766564596        4.52997520565327
H           76.96208841182626       -0.00694534947104        2.61663754990075
H           76.92164244290335       -0.09663492774185       -2.68299668290475
H           75.01332576799547       -0.02364978847930       -4.56666016740334
H           70.11023369392207       -2.93427367825903       -6.22765661278963
H           70.74525799432411       -3.89283672473372       -4.86445646089794
H           71.76035882146545       -3.62122204133714       -6.30518804534606
H           71.55173112079005       -1.71244914485175       -7.67095964607827
H           72.31561644287544        0.33485914115492       -8.78801606970587
H           73.10498281832248        2.26378497895235       -7.49210583817972
H           73.94833275267594        4.16896692381550       -4.50181767208519
H           72.88756818964998        4.02944322601521       -5.92859059107108
H           74.54903019005619        3.36755261320108       -5.97724084808213
H           69.72106915970794        0.31772884949063       -4.50931916501002
H           67.84291120270974        0.26079374637993       -2.59844407550885
H           73.13392086851654       -4.08948117833838        5.99446083963086
H           74.15981895937344       -4.21399060504181        4.54118023875361
H           74.76673783109814       -3.35823530042477        5.98326620791837
H           73.29074928615103       -2.29802141988794        7.51580707900198
H           72.45865140956163       -0.37765914525545        8.79764611578542
H           71.61165990697353        1.62788210381267        7.66441719319726
H           71.72815761632343        3.52694521258494        6.26801685010656
H           70.10610664715030        2.77298700485186        6.23040473070090
H           70.67797374349205        3.73474114055122        4.84183022588378
