242
 energy: -436.461209326286 gnorm: 0.000810083529 xtb: 6.5.1 (b24c23e)
Fe          50.70549117325655        0.04070962320229        0.03901766723099
C           47.31956552151652        0.05124456967235        0.15359875217052
C           47.96978635425329        1.26704043231341        0.20616996101671
C           47.29455652273594        2.52780861021364        0.27358156445390
C           48.25305215328596        3.47436462189424        0.40866106859695
C           49.51224666400604        2.78757838257811        0.43923050047434
N           49.32730542523515        1.44232981288127        0.27154960212601
C           50.73452905207745        3.41118752340002        0.66909186994669
C           50.74844131932510        4.86764726984734        0.93840590573334
C           50.08582026324358        5.38934867790931        2.05173018809545
C           50.10261874067112        6.74863351198299        2.30786953534635
C           50.78015367117694        7.61595167988356        1.44579918449179
C           50.79666853053552        9.01579188871009        1.70444643504102
N           50.81185936688885       10.14716715581325        1.91406270535090
C           51.44185938221786        7.09879499348748        0.32813855340106
C           51.42740482213176        5.73760652558925        0.08226070417464
C           51.94175905410274        2.72671370879363        0.66608406479250
C           53.20567592407435        3.32945508981402        0.97046182620561
C           54.14861297218716        2.37471432770444        0.78407039817828
N           52.11202159970370        1.40290745226502        0.33816394827249
C           53.45807847525100        1.19256720113489        0.37274432632885
C           54.11350220694612        0.01801903698108       -0.01788467575171
C           53.43079262867810       -1.14248665638270       -0.40432483105194
C           54.09137286955504       -2.32434532650493       -0.86262282201317
C           53.12831466854603       -3.25850774752833       -1.05079750636764
C           51.88332480748164       -2.64621434192606       -0.69204636470488
N           52.08325805979821       -1.33286990399562       -0.33849000312944
C           50.66919692898659       -3.31709042028906       -0.65575405437567
C           50.65015277954532       -4.76630715805952       -0.96092256500883
C           49.91671635176379       -5.25159409640446       -2.04604357137575
C           49.89959743066963       -6.60411609765436       -2.33583629688759
C           50.61381748814036       -7.50130756249828       -1.53612637656910
C           50.59630766516269       -8.89444172149476       -1.82893656036179
N           50.57866491262634      -10.02044145443257       -2.06551215047925
C           51.34609796453265       -7.02076282545778       -0.44652467786692
C           51.36469397989428       -5.66616475651519       -0.16685549093635
C           49.46862201992637       -2.68930589956613       -0.33799244984850
C           48.21038438018777       -3.37009983356518       -0.23104709012508
C           47.27144855153493       -2.42271694881327        0.00080254036161
C           47.95782015205101       -1.16683923408056        0.04308731776829
N           49.30563483960237       -1.34738213710121       -0.12818389665484
H           46.23620427805086        0.05374998858421        0.19495374799560
H           46.22471839528696        2.65248402489526        0.22120737083650
H           48.13128477140677        4.54301110139677        0.47962686469776
H           49.56917649959348        4.71837867962297        2.72860191995226
H           49.59227091213347        7.14586945822496        3.17742388346111
H           51.96505169322745        7.76870425659230       -0.34407300895988
H           51.93310224328496        5.34056552545940       -0.79063462339581
H           53.34282635186371        4.34908311586723        1.29163472516168
H           55.21693388363327        2.45001850638089        0.90756069290947
H           55.15461566123499       -2.41225961095974       -1.01765569697851
H           53.24081254778387       -4.27060051736987       -1.40376447188517
H           49.37055409775736       -4.55734823846851       -2.67455951636909
H           49.33395852530981       -6.97288705042980       -3.18345852810449
H           51.89770401028365       -7.71387925576163        0.17773962863517
H           51.92439618804077       -5.29807750997573        0.68554000302323
H           48.07666013909340       -4.43611565990613       -0.31824964958155
H           46.20785963232129       -2.54328451150386        0.13145871556955
Fe          90.97591823701021        0.01066833028805        0.07351559740981
C           94.36585102711089        0.00219477252490        0.17478474388866
C           93.71493495759641       -1.20476409922086        0.32285740330305
C           94.39380046274624       -2.45375654116736        0.49324478722022
C           93.43658709933717       -3.39468017503887        0.66752111220833
C           92.17373087594677       -2.71565500791308        0.61747758527273
N           92.35680469758253       -1.38167231120765        0.37151390823924
C           90.94878538735360       -3.34013019576703        0.82368387124826
C           90.93693981291923       -4.78382718746541        1.15707812601733
C           91.54460158969196       -5.24446683909643        2.32720732072227
C           91.53020266973358       -6.59066745671751        2.64515873654710
C           90.90967427931980       -7.50607449701024        1.78995178835294
C           90.89584126473495       -8.89249763517977        2.11278375083561
N           90.88136356723562      -10.01334976824577        2.37293122258814
C           90.30305789273849       -7.05012835765917        0.61579306202202
C           90.31554289881481       -5.70162720945462        0.30739058212584
C           89.73661838545263       -2.66921976990511        0.74243076058216
C           88.46810919534309       -3.27922293052642        1.01093730886459
C           87.52468756495995       -2.33393304420839        0.78592737542547
N           89.56774532476008       -1.35272843879563        0.38632932989700
C           88.21888428735404       -1.14916483378876        0.38844902369362
C           87.56513583296389        0.03139136247116        0.02144356330540
C           88.24354465229217        1.19658053278299       -0.35010173035318
C           87.57514866551512        2.38030618153269       -0.79255700851299
C           88.53776679536237        3.30128818221277       -1.03609409076872
C           89.79131109697630        2.68132506543553       -0.72331586635372
N           89.59532530272065        1.37715164826157       -0.33571698033423
C           91.01301438351979        3.33704893429907       -0.77713739395998
C           91.03452450535306        4.76882642792197       -1.15812597309450
C           91.70564235691563        5.18042171580762       -2.31182331403610
C           91.72463408064611        6.51436876190549       -2.67744526077667
C           91.07477930567258        7.46683716442451       -1.88683019268066
C           91.09306753248202        8.84069459274005       -2.25950966949494
N           91.10895817642715        9.95097351750143       -2.56147378595752
C           90.40638278479578        7.06036012983336       -0.72820871105343
C           90.38594873007864        5.72371217699149       -0.37208147428611
C           92.21982283069480        2.71212939239587       -0.48275187959187
C           93.48527956762445        3.38762076412383       -0.46038786681994
C           94.42339429944499        2.45194365531436       -0.18385022803330
C           93.73011209834206        1.20829593827455       -0.03311559064499
N           92.38014842871345        1.38464845317478       -0.19159360010767
H           95.44919862531076        0.00155661228521        0.21617879094697
H           95.46518047636589       -2.57493878711818        0.47519346258846
H           93.56122392147776       -4.45543418310591        0.81271560140432
H           92.01661271533153       -4.53595335850473        2.99840962053959
H           91.99817798649893       -6.94030062483771        3.55792637679027
H           89.82415644307230       -7.75748025524696       -0.05106922484133
H           89.85297896446228       -5.35238563988088       -0.60877600877522
H           88.32813202820286       -4.29644345571105        1.33835052466272
H           86.45373284781451       -2.41559487488194        0.87855564825223
H           86.50722213531398        2.47619297457679       -0.90454859666542
H           88.41958809266114        4.30924783311406       -1.39878384799967
H           92.20160708931012        4.44279001404730       -2.93250157433361
H           92.24152336011251        6.82570434416168       -3.57762331153731
H           89.90548298519859        7.79671096457797       -0.11071975131090
H           89.87608888759961        5.41349582936645        0.53296907628398
H           93.62333360136397        4.44353567236421       -0.62731563624704
H           95.49064957997162        2.57265073276077       -0.08772252253732
C           56.73763023814495       -0.00297110818393       -0.03650252094690
C           55.51342278459437        0.00610344036505       -0.02962102001651
C           58.08296751133693       -0.00857106348927       -0.04264163936258
C           59.30743742939763       -0.00973082615595       -0.04531832613260
C           70.15863426492236        0.01757175488222        0.01415750418836
C           68.93378938654146        0.01285889897256        0.00680345024576
C           71.50329918945270        0.02386042038461        0.01673553965764
C           72.72809214889286        0.02908303080356        0.01415819640972
C           83.59016596210923        0.05832772814481        0.01159344643150
C           82.36714593858900        0.06161434019513        0.00424891946712
C           84.93847011218661        0.05366435197397        0.01487336097598
C           86.16128518991042        0.04390923349845        0.01613229892942
Fe          64.12099903410736        0.00594104717304       -0.03541989089076
C           60.70650506367895       -0.00534999875625       -0.04633715358524
C           61.38246761184290       -1.19784416299882       -0.33757943061700
C           60.71492504882668       -2.43248089653837       -0.60455204870475
C           61.67365038694134       -3.32101207208523       -0.96356881709791
C           62.92127529619616       -2.61940452498485       -0.92130735269300
N           62.72979389448651       -1.32857861461729       -0.49450225682602
C           64.13562316876076       -3.16688679767292       -1.31823872908164
C           64.14091738041775       -4.53870344129631       -1.87662820604131
C           63.43691568433888       -4.82818623866867       -3.04763663728569
C           63.44391093449347       -6.10708004407557       -3.57472623284056
C           64.15193102057518       -7.12641785652288       -2.93125959228338
C           64.15772088110882       -8.44444902349101       -3.46964260806326
N           64.16311297801226       -9.51065549591962       -3.90229429394201
C           64.85398585791586       -6.84232570688014       -1.75621667625749
C           64.84986933913369       -5.55927369210873       -1.23911406470297
C           65.34449651549029       -2.49071528276077       -1.21314018873150
C           66.60005200491202       -3.01888079765559       -1.65568986661277
C           67.55115380949432       -2.12988144783704       -1.27863064827901
N           65.52467928823080       -1.26599312672254       -0.61743498040841
C           66.87097490067264       -1.05947346354034       -0.62036169140762
C           67.53535832277483        0.01026944777395       -0.00439823600502
C           66.85741816057320        1.08010274226478        0.59644846408698
C           67.52272725927510        2.15543686231991        1.26178978522704
C           66.56336744418854        3.04712143193185        1.61071196068932
C           65.31781605701512        2.51448840322699        1.14587814445728
N           65.51134772701474        1.28557798997268        0.56358660437606
C           64.10569000614991        3.18884540912104        1.22370802520013
C           64.09905901833348        4.56570711891700        1.76920809344884
C           63.37329684693911        4.86550296983727        2.92425630018715
C           63.37013077800765        6.14909315254113        3.43987053614479
C           64.09016767746944        7.16276580346010        2.80084927114440
C           64.08669127060807        8.48529395388836        3.32812687059936
N           64.08477656526608        9.55455760841303        3.75313776334649
C           64.81399609873041        6.86841512652341        1.64160871410923
C           64.81961289110573        5.58086082067519        1.13593629627117
C           62.89882143521623        2.63236384947505        0.81685554532400
C           61.64657014878915        3.32644224935623        0.84284099186009
C           60.69541653817128        2.42675135078204        0.49148915119484
C           61.37265606395880        1.19385676299319        0.24147917415602
N           62.71807078563788        1.33561793721428        0.40272137626366
H           59.65057085524023       -2.58451541132939       -0.52594226455675
H           61.55596198106561       -4.35883125553489       -1.22920923773359
H           62.89543164290869       -4.03744715749751       -3.55436961716590
H           62.90172129227138       -6.32329743522016       -4.48774116915038
H           65.40049047574354       -7.63102252590476       -1.25261321154705
H           65.38650957021433       -5.34421189328293       -0.32203625903891
H           66.72786503856602       -3.94709909359530       -2.18817132664751
H           68.61779987581809       -2.18120100908576       -1.42616141129776
H           68.58584010438922        2.20845952631219        1.43236888465595
H           66.67938967847351        3.97949950744914        2.13861064949976
H           62.82297775444106        4.07911873214791        3.42823671820659
H           62.81086362428598        6.37323488754221        4.34059425516622
H           65.36981709194987        7.65278266893193        1.14145331578784
H           65.37339327039552        5.35767761573024        0.23106416490170
H           61.52049697570909        4.36687470842241        1.09398778253087
H           59.63054283267522        2.57099764884589        0.40581146505389
Fe          77.54576402660368        0.05219102414341       -0.00579534816736
C           74.12691828036101        0.03577114537202        0.00924116706124
C           74.80090267155099       -1.14258320364295       -0.33853518673409
C           74.12640555028199       -2.36235320654544       -0.65397897118577
C           75.08324091049367       -3.25094333300905       -1.01542886923796
C           76.33724052950976       -2.56434230355542       -0.92680508546325
N           76.14897482353733       -1.27971792591891       -0.47719240127750
C           77.55473978705925       -3.12812304923976       -1.28359805819330
C           77.55704564155990       -4.49952084104119       -1.84442798298053
C           76.89918592333333       -4.77089641967111       -3.04617488673153
C           76.90029242811573       -6.04867219347452       -3.57608474949080
C           77.55681478330199       -7.08468174296410       -2.90527393095556
C           77.55589574822639       -8.40201101847955       -3.44541327883837
N           77.55430315126483       -9.46666668114070       -3.88184689139210
C           78.21363450687427       -6.81831688846714       -1.70028961585521
C           78.21493452369506       -5.53662031419820       -1.17967904212193
C           78.77061236532427       -2.47034493889209       -1.13939055639936
C           80.02951717548196       -3.02617979781202       -1.53604512286553
C           80.98190949146543       -2.13680162117614       -1.16475577651776
N           78.95018805924599       -1.23430072721493       -0.56980915818893
C           80.29962591797170       -1.03815932997919       -0.55698505465950
C           80.96425638955769        0.06071587232083       -0.00075846760776
C           80.29281963231726        1.15920400284062        0.54760553078050
C           80.96792570529090        2.26631460207080        1.14801600612533
C           80.01037314112371        3.15614664924647        1.50468568775548
C           78.75539987935909        2.59056279164439        1.10931596164336
N           78.94250419543100        1.35003202167640        0.55246200649320
C           77.53539934536396        3.24197235609081        1.24833403925179
C           77.53153971267716        4.62013687684490        1.79242045119955
C           76.87993911846348        4.90311145027053        2.99485252932369
C           76.87737494890359        6.18759534499218        3.50837025880035
C           77.52375609132709        7.21857614825028        2.82017448879953
C           77.51962786410340        8.54258881000626        3.34373441887314
N           77.51656781683843        9.61282528773120        3.76651107667399
C           78.17424863040800        6.94050982460536        1.61440790919439
C           78.17945286510367        5.65226062649357        1.11032844920320
C           76.32052289979602        2.66451009021082        0.90517041393101
C           75.06066451213988        3.33945434342891        1.00048130379867
C           74.10893488511593        2.43745712838496        0.65937377947295
C           74.79239245914293        1.22192492688726        0.34685983237221
N           76.14037510318552        1.37377120267922        0.46954898284217
H           73.05934996667604       -2.50584293836857       -0.60019566881836
H           74.96085890864875       -4.28053160268790       -1.30935596251966
H           76.39786796389097       -3.96720516764221       -3.57346858913644
H           76.39318298439601       -6.25098008147435       -4.51217352460114
H           78.72055726857202       -7.61994021818831       -1.17612461187356
H           78.71586790993777       -5.33549307115785       -0.23954200027556
H           80.15849061344660       -3.97106999166181       -2.03793619604196
H           82.05072103456195       -2.20296447829537       -1.28845031487726
H           82.03591103312968        2.33799371739095        1.27574227076096
H           80.13324812676731        4.10696061627647        1.99685620092867
H           76.38678832615670        4.10348752910705        3.53585918622580
H           76.37540627799753        6.39902731258091        4.44521592607797
H           78.67336057362432        7.73809370290912        1.07675059878939
H           78.67593989045334        5.44163022620726        0.16991319007459
H           74.93106457304839        4.37065102470748        1.28553576079207
H           73.03989649447549        2.56939788610040        0.61639419839934
