434
 energy: -716.879423832049 gnorm: 0.000914954241 xtb: 6.5.1 (b24c23e)
C           99.02770890849717        0.00239636452159        0.17582643132639
C           99.64509082547578       -0.88726524437572        1.04580457429892
C           99.00245775741280       -1.80392342597223        1.92396106865110
C           99.97236867420725       -2.49278879034491        2.59706464081244
C          101.23891964239375       -2.00960867729192        2.16154347184273
N          100.99033180866718       -1.04976873310092        1.22112008579812
C          102.50632461923371       -2.43176817627475        2.57923300183366
C          102.54934655497648       -3.48002765919505        3.62669721808785
C          103.16296357262888       -4.70997624654867        3.37629716658376
C          103.20362447427260       -5.69365460148308        4.34820630506744
C          102.64113773986571       -5.46042717227466        5.60580169286738
N          102.64663420327844       -6.45552822216403        6.56843778907414
C          102.02095230294714       -4.23512781724179        5.86266528952010
C          101.97588409177210       -3.26046792106346        4.88133937380699
C          103.71713026315096       -1.93891027056629        2.08442413183433
C          105.01714221270944       -2.34715588594650        2.58365747723357
C          105.93346238919281       -1.65808437869203        1.87223328423856
N          103.86639543068860       -1.00750517949206        1.10235649734883
C          105.19403238634479       -0.82241839584977        0.94743117103188
C          105.82554295304638        0.02855992307945        0.01811998408077
C          105.18034699339519        0.86713087481885       -0.91018356299233
C          105.81128672477899        1.70189842293148       -1.86939493577118
C          104.83577085195265        2.36290711327589       -2.56321710092067
C          103.57635855830483        1.96421058052466       -2.03689690401642
N          103.83615236283083        1.05185820107737       -1.04804863018200
C          102.31060830023229        2.39927916618464       -2.44646419703635
C          102.26777554354210        3.41661214034435       -3.52318001768458
C          101.61323396832438        3.14879935212018       -4.72814997757135
C          101.57323253473341        4.09218650650496       -5.73941109718585
C          102.17781389199027        5.33887455496319       -5.55942965986576
N          102.17479384201921        6.27145543317799       -6.58288325610604
C          102.83686540812946        5.61388949913975       -4.35855308360850
C          102.88064854677961        4.66095898529835       -3.35629257365852
C          101.09930586700943        1.94805531885982       -1.91065515298409
C           99.79417341330718        2.46013491630505       -2.29798835509386
C           98.88537442514496        1.78742946391947       -1.56298356355351
C           99.63451700530280        0.87322727215050       -0.71983682229358
N          100.96424674735142        1.00361413783847       -0.94968697479599
H           97.94263178420205        0.00794158192632        0.20312325978537
H           97.93382079687071       -1.91866056139188        2.01298479146867
H           99.82825591771861       -3.27460059285159        3.32509707609177
H          101.71015024706169       -0.54029261816627        0.71962344110573
H          103.59492497555075       -4.90118307578327        2.40007575783765
H          103.67357459295253       -6.64829132763857        4.13814412393457
H          102.53864866409329       -6.13021679337664        7.51595649739075
H          103.36794875610404       -7.15015048417676        6.45688397700375
H          101.57973608284992       -4.04932806886174        6.83592395020879
H          101.51010011790059       -2.30465865287092        5.09579880220595
H          105.18574754600537       -3.05379007660425        3.38009576887580
H          107.00795873371550       -1.69730038715300        1.94873272299994
H          106.87705051290685        1.78033036239356       -2.00814325358858
H          104.97443583062987        3.05928970035623       -3.37399600465414
H          103.12129270990721        0.58083349242423       -0.50330400992830
H          101.14939531115087        2.18011689795523       -4.87894496447926
H          101.07184640806577        3.86758286438579       -6.67457235556616
H          101.43245780401223        6.16240326874537       -7.25538380645276
H          102.31998643584878        7.22426750017156       -6.28887986726680
H          103.30973636035289        6.57919657076502       -4.21379668531416
H          103.37708571676050        4.89052248180270       -2.41966000576599
H           99.62173494961168        3.23938842002350       -3.02301134502972
H           97.81084160138577        1.88503372169072       -1.56260987503042
C          171.20894524156492        0.08963542022686       -0.10526619273797
C          170.59849905353093        0.73549749967975       -1.17294934550179
C          171.24865810208564        1.35466064633452       -2.27674847527546
C          170.28570744159572        1.88007295079939       -3.09233694467051
C          169.01642205636580        1.60910141450022       -2.50695378111163
N          169.25583830842945        0.90759712803115       -1.35880686336303
C          167.75368522042058        1.96809479858517       -2.99331241957922
C          167.71885581557689        2.76817728359016       -4.23995538472454
C          167.04851402253578        2.29408853288718       -5.37059461153633
C          167.01559382244227        3.03436236638740       -6.53886678004252
C          167.64256570008357        4.28157513462207       -6.59664396441367
N          167.64479755863948        5.00882383974553       -7.77476923477978
C          168.31735498613440        4.76199350004179       -5.47149216754729
C          168.35472009949603        4.01022582823716       -4.31049576925525
C          166.53982944854482        1.63075354640483       -2.38747618491247
C          165.24663545846965        2.09009082871443       -2.85938178377133
C          164.32561361737987        1.55970600933479       -2.02764506841099
N          166.38322304458444        0.85730197423132       -1.27784644755292
C          165.05644340678663        0.78395112595477       -1.04547069197198
C          164.41810997095806        0.07242216411397       -0.00930291167934
C          165.05431325443041       -0.63868298504401        1.02573842276238
C          164.41360433563929       -1.39953179314967        2.03843356654904
C          165.38176123454471       -1.92587721908131        2.84862335842938
C          166.64553357499975       -1.49639711436061        2.35839995685443
N          166.39606694957936       -0.72992307855886        1.25032920816820
C          167.90766672026166       -1.80674790896117        2.87864265577837
C          167.93990987833038       -2.61847092073973        4.11722891537021
C          168.59477394057831       -3.85258221707350        4.14282288600600
C          168.62418367654448       -4.61697355055004        5.29549185712788
C          168.00816459548139       -4.15308319014775        6.46066414693119
N          168.00249577556883       -4.93247513557952        7.60479685122433
C          167.34725846363125       -2.92224650495116        6.44280068527018
C          167.31415455072755       -2.16878774542094        5.28278198861835
C          169.12331274304040       -1.40947553473053        2.31034889446295
C          170.42722281533779       -1.68480404574629        2.89290346014657
C          171.34105540919984       -1.15704636749075        2.05306991038251
C          170.59640074999530       -0.54873397733929        0.96536231516039
N          169.26435117016368       -0.71011915883188        1.15927867555749
H          172.29434782314382        0.08876887871037       -0.11755913594624
H          172.31713081670580        1.38149476567238       -2.42073848600419
H          170.43634935529690        2.40117986210449       -4.02389067639780
H          168.53127621256263        0.55904055540386       -0.74013725150488
H          166.56556380636499        1.32348916390431       -5.33659398552670
H          166.50127341891499        2.64969605561762       -7.41300652951803
H          167.80704567857967        5.99688002867087       -7.66282046135414
H          166.89469433159988        4.79024090858841       -8.41089643914417
H          168.80662938526766        5.72913507548255       -5.51061898007418
H          168.86312709027811        4.40020114193964       -3.43532506484039
H          165.08607472855334        2.74617914615712       -3.69960970027387
H          163.25480681737574        1.68384640039006       -2.04696378502524
H          163.34751086487100       -1.53373352263101        2.12295733268461
H          165.23574921114357       -2.56790246347078        3.70189503640847
H          167.11691188372367       -0.30770506954728        0.67442731913113
H          169.06644979414091       -4.22480570102624        3.23998378419643
H          169.12583058793666       -5.57853549513105        5.29913873529616
H          168.74403134206779       -5.61235502314276        7.65965619437011
H          167.84973496172034       -4.42746705912771        8.46312529422804
H          166.86453730973500       -2.55799122361761        7.34316097567833
H          166.81619809248045       -1.20521048544911        5.28355485553123
H          170.59645344941097       -2.19840359420285        3.82575663325878
H          172.41652644542387       -1.15525056991717        2.13977407797916
C          107.23568172366002        0.04925965093120        0.00567197609384
C          108.45281010209730        0.07414009187512       -0.00179659850475
C          118.14838980677557        0.11167761860136        0.01144150128484
C          119.36697261932596        0.09611256172729        0.01221849953373
C          129.05935230810749        0.03358542616724        0.01179804561368
C          130.27827830330219        0.03424432388739        0.01165127259387
C          139.97224384316138        0.08016120279911        0.02998973875048
C          141.19117225685088        0.08221425880472        0.03232701522653
C          150.88557317902888        0.03782372434357        0.00819048897026
C          152.10427873648121        0.03528592763145        0.00581554118258
C          161.79192249172004        0.05221704501479        0.01116954775286
C          163.00930296572096        0.06340895513849        0.00164072660337
C          109.86202961709088        0.09375385199790        0.00231791975809
C          110.49026503923099       -0.17034126994539        1.23454882858850
C          109.84832649332292       -0.46837181918030        2.46351944468033
C          110.81473754399295       -0.60613307711718        3.42247633191083
C          112.07640752361215       -0.37994029043333        2.80928183740934
N          111.83070538239740       -0.13713301829374        1.48393809037784
C          113.33261339619898       -0.38575305053072        3.43001080788890
C          113.34791572724664       -0.60867145385196        4.89503301856345
C          114.05115044570712       -1.68704453365742        5.43871524493021
C          114.06550497061066       -1.90979878045156        6.80381998229102
C          113.38496333145532       -1.04300404545171        7.66286901050560
N          113.36406311642021       -1.28566151226325        9.02554746539164
C          112.67765179397776        0.03658052249548        7.12775041613488
C          112.66049981045505        0.24635106557710        5.76015910139669
C          114.55600608324181       -0.20177436053576        2.78171332193679
C          115.82790553793856       -0.10607502950013        3.47370874451772
C          116.77208922689763        0.03696791371737        2.51976966673969
N          114.74648869716084       -0.08662640010669        1.43814593317229
C          116.07670433939721        0.03352011699392        1.24969900264439
C          116.74198914273789        0.11880091049566        0.00889625012341
C          116.11110506379093        0.21369067555059       -1.24772042979694
C          116.74846625937575        0.23580318795109       -2.51377192201496
C          115.78173150742130        0.38624279285573       -3.47092132052910
C          114.52406438324027        0.46408344351763       -2.81487482553893
N          114.77212939282360        0.33609048719200       -1.47394655615148
C          113.26827686165967        0.63259124973452       -3.41359305554834
C          113.26092868303459        0.84679893428646       -4.87996078587494
C          113.94622797722685        1.92532761860126       -5.44543692358218
C          113.93476748135421        2.13598551652404       -6.81279404690603
C          113.23643390419652        1.26284461089818       -7.65073727764776
N          113.26050632447314        1.44342381112709       -9.02311536670819
C          112.56305007655769        0.17187353809278       -7.09525326653129
C          112.57122320468491       -0.02550471842066       -5.72604393004530
C          112.04295612345445        0.60849615931521       -2.74360829944363
C          110.76464356154393        0.84566792380854       -3.38874905584597
C          109.82089456132630        0.68747091714995       -2.43715294337833
C          110.52311685597127        0.37227087675824       -1.21025225704921
N          111.85598243270384        0.34859287138189       -1.42018747481523
H          108.78287115540117       -0.56307901206994        2.59349185260710
H          110.66644195954539       -0.85062938085166        4.46153691086363
H          112.54757256256987        0.03757866934149        0.78766356555802
H          114.57456974154331       -2.36912301032761        4.77772058883417
H          114.60542084423101       -2.75712824231577        7.21223983883795
H          114.13027500910583       -1.84183061430151        9.37013395701516
H          113.15434494959237       -0.48361638578425        9.59809128468837
H          112.14596337719317        0.71193873750008        7.78921937209625
H          112.12608914545632        1.09907554909528        5.35559271819393
H          115.95900759400533       -0.12404211717471        4.54360243114581
H          117.83636461786374        0.15541060067141        2.64263755300317
H          117.80984545440781        0.13499679786112       -2.66878362255686
H          115.92576077421313        0.42406654131841       -4.53831479585205
H          114.05708464975704        0.32659182050084       -0.75447026835095
H          114.47454039963310        2.61922642288326       -4.80057960773928
H          114.46337533417815        2.98203352668274       -7.23839752292960
H          112.49914275591885        1.01126924008882       -9.52185891837030
H          113.46186953430852        2.38349393179349       -9.32456162271393
H          112.03284880441839       -0.51848009959387       -7.74216531347244
H          112.05392146135698       -0.87995086260388       -5.30377797003219
H          110.62754345050817        1.11002713534440       -4.42480825950352
H          108.75075374923856        0.77480512844252       -2.53349092001669
C          120.77303718215055        0.08670548273510        0.01567543490508
C          121.40264374290493       -0.30956614169069        1.21293897398469
C          120.76806690807737       -0.77578839420538        2.39140691023955
C          121.73589804398941       -0.98996673745152        3.33589091509409
C          122.99052194948413       -0.65315172250600        2.76149319610727
N          122.74099571785636       -0.27167425280515        1.47002338175666
C          124.24449235350828       -0.67291536189018        3.38785427057376
C          124.26058023573700       -0.99910789298501        4.83202401305411
C          125.02085196201747       -2.07060548123543        5.30908447858549
C          125.03904493118027       -2.38470524332807        6.65594788457410
C          124.30494493122674       -1.61811169010731        7.56472176429516
N          124.29107250155519       -1.95183012115037        8.90808736729454
C          123.53882702520923       -0.54751795801407        7.09643668322486
C          123.51802627770559       -0.24676489661118        5.74623045624311
C          125.46413063965097       -0.41140895837596        2.75897555617061
C          126.73071506812025       -0.31548952277530        3.46022600584708
C          127.67527680297087       -0.11310222260517        2.51711274389744
N          125.65675281886021       -0.23194668262747        1.42262875897555
C          126.98536912304573       -0.08268208832990        1.24469822531460
C          127.65364724791048        0.03818862836471        0.00809545778010
C          127.02150118648363        0.16354870060728       -1.24582254506313
C          127.65257217692675        0.20123910834168       -2.51423720732917
C          126.68458572318244        0.39942802225451       -3.46210218961285
C          125.43343598667757        0.49546132136026       -2.79676263148914
N          125.68462511704928        0.32086373524556       -1.46173363086190
C          124.18144019435273        0.74883181368181       -3.37427804774540
C          124.16565458338498        1.03361698528962       -4.82719731760918
C          124.92237786768121        2.08004356772954       -5.36153710841076
C          124.90223173915633        2.35059912083056       -6.71813375754415
C          124.12251920975491        1.57171489593312       -7.57707712984600
N          124.13685950040731        1.80856947830971       -8.94078099492524
C          123.37384037815315        0.51444172620067       -7.05344886726594
C          123.39154155615969        0.25753457223234       -5.69451268668291
C          122.96375595045716        0.75264845099483       -2.68973883727495
C          121.70067127416300        1.14059434939898       -3.28915747301334
C          120.75623242518736        0.95870020921886       -2.34175746493462
C          121.44288363080499        0.46454794730984       -1.16686517438956
N          122.76988359199491        0.38155301351539       -1.39370851556910
H          119.70804893149196       -0.93832242786705        2.49526323921188
H          121.59362438575228       -1.36236958103003        4.33718561041122
H          123.45470315946744       -0.00616636068939        0.79988811089915
H          125.58607610750177       -2.67589081837103        4.60894817237598
H          125.62387418612552       -3.22591298123833        7.01167586485603
H          125.08578362383244       -2.48589439601461        9.22167394695278
H          124.03369540971187       -1.20215792974158        9.53004631164881
H          122.96491136137692        0.04967919848416        7.79667471827351
H          122.93776173802353        0.59952231153490        5.39480644943964
H          126.85789165091181       -0.37202854733547        4.52928144970118
H          128.73617713186690        0.02365523772949        2.64953461445235
H          128.71028204486765        0.07816474383796       -2.67809193087630
H          126.82439743550702        0.45924727616874       -4.52905780060196
H          124.97285458347110        0.30541073269680       -0.73916512368711
H          125.51360120601356        2.70364458385262       -4.69971828996891
H          125.48729326226207        3.17124932619779       -7.11888969603465
H          123.33613832912454        1.45803019083895       -9.44185474555369
H          124.40758816025786        2.74149761889697       -9.20798538338259
H          122.77809961737903       -0.10264133493805       -7.71718679428210
H          122.81489113004923       -0.57049233802154       -5.29714504818005
H          121.57581930529838        1.52135624895217       -4.28999825454315
H          119.69777997159704        1.15234984701693       -2.40460146921787
C          131.68394448218305        0.03808446241475        0.01641489069980
C          132.31721490023651       -0.34766838840961        1.21553529857739
C          131.68738241818420       -0.82063175709760        2.39368514654394
C          132.65613134606554       -1.01595908698365        3.34141748743048
C          133.90648894973376       -0.66039273398027        2.76923926533379
N          133.65414837153568       -0.28775575973320        1.47568803949344
C          135.15871964712875       -0.65680878809755        3.39959493202362
C          135.17520062942108       -0.97507760632959        4.84548894261263
C          135.95153383095322       -2.03126752427837        5.33088410386668
C          135.97028025979685       -2.33793451470030        6.67942351296619
C          135.22034011730139       -1.57892314950073        7.58165294004746
N          135.20733997933141       -1.90577529046799        8.92664421510911
C          134.43812503263203       -0.52375428184061        7.10504683315071
C          134.41701736232923       -0.23048839415325        5.75318984605555
C          136.37616927422866       -0.38027769360931        2.77300006755100
C          137.63946664715425       -0.26257551806002        3.47681453570398
C          138.58395921429880       -0.05513263758024        2.53465717952109
N          136.56996358746073       -0.20697264579198        1.43595838772363
C          137.89703905730482       -0.04252691930275        1.26038285680677
C          138.56654775447760        0.07647951863223        0.02421105192978
C          137.93501389982109        0.18917723040502       -1.23123157222123
C          138.56748677870863        0.22701005390519       -2.49893513736907
C          137.59878334662787        0.40993917271183       -3.44915507734755
C          136.34567069867481        0.49588075648698       -2.78615445378263
N          136.59684131995797        0.33143007143046       -1.44984494862318
C          135.09190316603051        0.73220822153489       -3.36720293229387
C          135.07557830772654        1.00918519609264       -4.82161846256045
C          135.82170626043873        2.06083598932854       -5.36056886063551
C          135.80091990894974        2.32349720804152       -6.71871297112384
C          135.03127436602190        1.53129589914600       -7.57454629604790
N          135.04536518400684        1.76063365710152       -8.93956964771343
C          134.29333835376823        0.46882313380562       -7.04624121047073
C          134.31152435513312        0.21979440229571       -5.68585840583879
C          133.87271158736806        0.72462535019663       -2.68544334507749
C          132.60646573576895        1.09529306287081       -3.28906662206016
C          131.66194899364058        0.90442082085245       -2.34345650728543
C          132.35167402787295        0.42212449576012       -1.16554375296779
N          133.68011145056914        0.35491818015041       -1.38875425099324
H          130.62999721441983       -1.00053283621183        2.49524957558310
H          132.51727128290017       -1.38750231723201        4.34350584625909
H          134.36495231465710       -0.01281851005978        0.80628588504711
H          136.52911985225685       -2.63082040023797        4.63591149031994
H          136.56780715617674       -3.16741132108838        7.04159076364876
H          136.00961759065353       -2.42493510006709        9.24592240083681
H          134.93504183774235       -1.15749674352271        9.54390538068032
H          133.85187897508044        0.06745466385699        7.80014601514674
H          133.82386378697583        0.60411444035226        5.39537675411760
H          137.76452259884903       -0.30960781356900        4.54658469675948
H          139.64266804837791        0.09637849717583        2.66877157215810
H          139.62670285005785        0.11471372895669       -2.66074622996481
H          137.73948997249420        0.46551800352674       -4.51621777218012
H          135.88447303590775        0.31123351757764       -0.72800015061055
H          136.40493344552604        2.69459471205295       -4.70131599302787
H          136.37767020251087        3.14821471878877       -7.12315408436503
H          134.24905195959332        1.39900173289650       -9.43980418177475
H          135.30654987756216        2.69495946835815       -9.21142049933825
H          133.70559190190582       -0.15852409332194       -7.70746950604111
H          133.74334215464316       -0.61227913092392       -5.28476706146108
H          132.47937884414509        1.47174643979827       -4.29126420499636
H          130.60127316144809        1.08424246585397       -2.40969681888336
C          142.59691077227953        0.08035725031202        0.03514020754900
C          143.23101020658814       -0.30433450416161        1.23400825526778
C          142.60127661389927       -0.76137900304731        2.41852805569422
C          143.57244887068231       -0.96416811151644        3.36214389646588
C          144.82449485764099       -0.62967077061385        2.78089079820109
N          144.57000664266721       -0.26004753173911        1.48689021014019
C          146.08058240386686       -0.64391198213587        3.40324571375578
C          146.10116781120379       -0.95879740944569        4.84997618690532
C          146.86092436825601       -2.02801199749516        5.33296275971380
C          146.88346592046818       -2.33114879917157        6.68227925052096
C          146.15443190694364       -1.55555759770638        7.58751192203664
N          146.14485973290007       -1.87828426743806        8.93355574150328
C          145.38885573686372       -0.48718653256762        7.11330077597802
C          145.36358099996741       -0.19749382161873        5.76073373475572
C          147.29844868426383       -0.38799272231534        2.76871711251084
C          148.56759734934548       -0.28990734310506        3.46513242564600
C          149.50943368894917       -0.09504664877513        2.51774799265402
N          147.48690368577178       -0.21693748886505        1.43067646160604
C          148.81515225132151       -0.07065316712646        1.24747484486917
C          149.47953639732850        0.04465331980405        0.00844987148809
C          148.84417878047134        0.16610858660795       -1.24396027383371
C          149.47136069364791        0.19872489140991       -2.51451847199609
C          148.49993685030628        0.39018825840816       -3.46026701011945
C          147.25061467482038        0.48744145079875       -2.79151540163181
N          147.50636995998045        0.32065480352081       -1.45642551935856
C          145.99608876094183        0.73485583064922       -3.36612150548133
C          145.97393071741726        1.00840235993293       -4.82106096647511
C          146.72765469840274        2.05068714791635       -5.36755885168241
C          146.70079554223076        2.31005627850399       -6.72623307419902
C          145.91701389947508        1.52404959687054       -7.57491518810110
N          145.92421469888933        1.74999078376784       -8.94055143066907
C          145.17138970012098        0.47075885087248       -7.03909696672261
C          145.19602705917154        0.22487604063277       -5.67826436847972
C          144.78052336979246        0.74077031211542       -2.67773475993847
C          143.51520137672782        1.12324248373717       -3.27595599056465
C          142.57323503601040        0.94286340130969       -2.32577519587325
C          143.26366851463740        0.45554452508254       -1.15034602129492
N          144.59039448401441        0.37535241056542       -1.37946479903989
H          141.54200534982326       -0.92545415851619        2.52714825361260
H          143.43402988403236       -1.32734808199712        4.36736217268608
H          145.28101849057239        0.00104164586820        0.81214299426382
H          147.42233145683900       -2.64023056849353        4.63577176369158
H          147.46787294518359       -3.17068916121310        7.04267547316674
H          146.93946676891662       -2.41157651674160        9.24870429698839
H          145.89125551414631       -1.12324163406860        9.55054895841467
H          144.81890448968832        0.11700822208035        7.81077574691953
H          144.78363222419418        0.64701422564652        5.40451482118787
H          148.69831761866823       -0.34036405181687        4.53406184879436
H          150.57104265232155        0.04074484227667        2.64579706228438
H          150.52888386511424        0.07707316996615       -2.68114640693195
H          148.63633487172453        0.44444881811775       -4.52796260183618
H          146.79704757200716        0.30707658502043       -0.73141529780375
H          147.32168538778677        2.67998368497686       -4.71370561945550
H          147.28364529735143        3.12752584291710       -7.13658816648241
H          145.12054819284180        1.39591560326322       -9.43437190353482
H          146.19370060133321        2.68073785511313       -9.21652774965870
H          144.57254189172747       -0.15186984355594       -7.69478734034411
H          144.62177382106961       -0.60014314478896       -5.27129270594374
H          143.38723101073313        1.49993611281346       -4.27793263155566
H          141.51417450681768        1.13365089700837       -2.38712064143474
C          153.51060908422443        0.03526859669745        0.00810168747543
C          154.14218272404568       -0.38897654838183        1.19459731425028
C          153.50579989339602       -0.88560637400062        2.35987147093332
C          154.47239051637035       -1.12897733102250        3.29808043183509
C          155.72875113267420       -0.78258263832706        2.73277181030330
N          155.48064111417042       -0.36218072451511        1.45298092202002
C          156.98287899103860       -0.84338893637322        3.35592954312365
C          156.99064996298600       -1.21519582436671        4.78956040044408
C          157.71838378437013       -2.32115522562224        5.23691400648698
C          157.72618465307619       -2.67190564856239        6.57503674747029
C          157.01376324777868       -1.90939577340307        7.50419898821684
N          156.98849579817798       -2.27869943312697        8.83812747992754
C          156.27910610424368       -0.80494323024056        7.06514209334661
C          156.26886231041019       -0.46706569058443        5.72371018633602
C          158.20619171789690       -0.58044685719397        2.73483639619015
C          159.48016144771839       -0.56071847626472        3.42998198516497
C          160.42274474949673       -0.31796165222500        2.49467268811534
N          158.39319194883862       -0.31944302837317        1.41182570138667
C          159.72324543327142       -0.18030896105058        1.23384397293417
C          160.38413428664018        0.04731192118962        0.01036721631171
C          159.75615321627552        0.27339565538602       -1.22977215474345
C          160.39658337956956        0.42754993408838       -2.48547807689637
C          159.43012395962512        0.66427485284155       -3.42548516868476
C          158.17076916323816        0.67037366715467       -2.76776085684862
N          158.41691478014596        0.40976954701791       -1.44604141680087
C          156.91474671984113        0.91077473450257       -3.34116532318394
C          156.89802981318704        1.26495404925606       -4.77924473230656
C          157.60970215329689        2.36892653058395       -5.25607122843067
C          157.59016359717404        2.70009875567569       -6.59927034587033
C          156.85642766933682        1.92604861706995       -7.50196844007692
N          156.87368631051913        2.22522228872519       -8.85323558470801
C          156.15260453213071        0.81259277356161       -7.03580905864900
C          156.16932129741434        0.49466368854170       -5.68979348468018
C          155.69323335449255        0.83973460416837       -2.66723391877346
C          154.42165964799432        1.20981354144424       -3.26014620887136
C          153.47904320339461        0.96876001627241       -2.32440455499806
C          154.17509970097689        0.45610790910174       -1.16278399606617
N          155.50451325147782        0.41543767860898       -1.38683257947509
H          152.44523208633325       -1.04750904579512        2.45882661553491
H          154.32877028492598       -1.52829387667196        4.28874564602892
H          156.19599960967219       -0.07714077333525        0.79266481081158
H          158.26578469763422       -2.92400695525442        4.52070841964425
H          158.28600222812375       -3.53912278332646        6.90785073511385
H          157.76776580946424       -2.84249334187283        9.13805866208148
H          156.75109642699391       -1.53889541660505        9.47957080875965
H          155.72135935807705       -0.21111583093940        7.78114287498149
H          155.71286187195076        0.40418775324635        5.39474371527444
H          159.61419516834533       -0.69425774552098        4.49130546150003
H          161.48855400198187       -0.21985107794704        2.62543872376286
H          161.45959123081008        0.35230787857111       -2.64630280346809
H          159.57620779432403        0.80786752847665       -4.48355282624209
H          157.70020066880852        0.31966849505827       -0.73383913545982
H          158.16479918511482        2.98803574049410       -4.55965002878554
H          158.14032232781699        3.56426358494851       -6.95554311451116
H          156.09563604693824        1.86153688218197       -9.37997153576309
H          157.10400154211942        3.18053522561993       -9.07546641901406
H          155.59273484660085        0.19968475497114       -7.73375413856779
H          155.62798186882114       -0.37630819597826       -5.33702171087150
H          154.28979659414307        1.61946882971260       -4.24859273348950
H          152.41544880711871        1.13232768173971       -2.38672244555810
