84
 energy: -144.909679113399 gnorm: 0.000946400040 xtb: 6.5.1 (b24c23e)
C            0.50822977672963       -0.09112663252641       -0.00301457756282
C            1.14298555075666       -1.32505489124552       -0.06844036311022
C            0.53946457458204       -2.61373353903971       -0.13503181512090
C            1.53916620732797       -3.54412108971846       -0.18522984222439
C            2.78458049147082       -2.85341823764891       -0.15072600781475
N            2.49452987186288       -1.52149626704096       -0.08062763841459
C            4.05815052967969       -3.40951393311632       -0.18099263868419
C            5.27160414250874       -2.73794024693632       -0.14595784960255
C            6.55605150732452       -3.41440822822227       -0.18117918819368
C            7.49685835429670       -2.44883083058315       -0.12948949951090
N            5.45248254168448       -1.39087116460259       -0.07496073210113
C            6.78326598624079       -1.18613573793305       -0.06336829609899
C            7.42783789494168        0.06742891238255        0.00217801289176
C            6.76799184712555        1.30920831738315        0.06462527604542
C            7.36572413412412        2.59687645766383        0.13023706161583
C            6.36186659104267        3.52456418225031        0.17713918239985
C            5.12073952740088        2.82920329200000        0.14178842472342
N            5.41878594055402        1.49493919645021        0.07368109185852
C            3.84844060309726        3.38621982813392        0.17137895255588
C            2.63349757443751        2.71276085246753        0.13856733981630
C            1.34259242329157        3.38251356734129        0.17555436983363
C            0.40799665439521        2.41204614989606        0.12720349922144
C            1.12880064091417        1.15075127708796        0.06054319437758
N            2.46515841228175        1.37137903096138        0.06957933042787
H           -0.57648805731957       -0.10813889806428       -0.00213724856845
H           -0.52437319415042       -2.79046007205757       -0.14272116688406
H            1.43681859515288       -4.61628122047980       -0.24118512733530
H            3.18393348846608       -0.77824940593112       -0.04260303170375
H            4.09891553873215       -4.49257275299496       -0.23795768476575
H            6.68688044820689       -4.48366698944927       -0.23770668219801
H            8.57038931150580       -2.55120362839761       -0.13443032860517
H            8.42875025969037        2.77719558489878        0.13959656960888
H            6.46049687944628        4.59700517646903        0.23164879428039
H            4.73201733069973        0.74893883193880        0.03579549264594
H            3.80962589226155        4.46937843947792        0.22694689506509
H            1.20573869262599        4.45126991390078        0.23117234267067
H           -0.66677570117017        2.50594078999974        0.13417045128207
C           28.65561109554389        0.09106593155481       -0.01646139173367
C           28.02089395752453        1.30658327118710       -0.23882975745175
C           28.62439570207632        2.57589041343213       -0.47112808169286
C           27.62464187558264        3.49239315487190       -0.63864531335039
C           26.37923408815103        2.81210782105549       -0.51403148249502
N           26.66931322010666        1.50014715469014       -0.27411662032178
C           25.10571759567798        3.36016617989259       -0.61398099748500
C           23.89216660542224        2.69882560422706       -0.49331385592135
C           22.60778203463394        3.36529773528203       -0.61464604071476
C           21.66693552126659        2.41402387211855       -0.44135074931588
N           23.71119273112193        1.37165493123782       -0.25161188233845
C           22.38045367064160        1.17001399396022       -0.21482157092953
C           21.73542242568248       -0.06483975958171        0.00974771642439
C           22.39498922815960       -1.28827406942382        0.23207439084841
C           21.79743521240458       -2.55680678092243        0.46314607558409
C           22.80143351959528       -3.47025493757872        0.63086469615549
C           24.04251924976259       -2.78502669010727        0.50679900305666
N           23.74430489342182       -1.47090922387270        0.26630077745820
C           25.31480943390173       -3.33353703148082        0.60828802628614
C           26.52986916076221       -2.67028728371720        0.48782890562856
C           27.82068184849491       -3.33034452403218        0.60893586262706
C           28.75547380631268       -2.37467314493257        0.43442966826162
C           28.03494740633973       -1.13210219165293        0.20709884822590
N           26.69850920772038       -1.34909769502888        0.24640125808815
H           29.74033353907108        0.10772167853741       -0.01938949124223
H           29.68822200068530        2.74992282420375       -0.50316093735213
H           27.72676527068134        4.54849451026585       -0.83192605241781
H           25.98045681863385        0.76757967234859       -0.14002825266156
H           25.06523751047175        4.42712195856479       -0.80864114635957
H           22.47683897035878        4.41871595351344       -0.80645163386120
H           20.59343303467249        2.51502846453822       -0.45983000713752
H           20.73443130670212       -2.73476185417516        0.49468792975709
H           22.70295447930603       -4.52662242296924        0.82382683995873
H           24.43040316053320       -0.73534586821207        0.13279747192996
H           25.35358510052174       -4.40040617449408        0.80353760693687
H           27.95722853225272       -4.38314151358133        0.80137508019735
H           29.83022986632095       -2.46746747285521        0.45160357739693
C            8.83153760583735        0.08623681077741        0.00618582034915
C           10.05671719458143        0.08624133086631        0.00753834649940
C           11.39827603471150        0.07490120657223        0.01091267574094
C           12.63000446572857        0.04818374846708        0.01170100117962
C           13.96517241165042        0.02234483131683        0.01469020517964
C           15.19832335814056       -0.01133290654765        0.01547857537722
C           16.53341245149418       -0.03715816984622        0.01715123076612
C           17.76507049846973       -0.06555825880839        0.01696193236055
C           19.10651036169113       -0.07862387451764        0.01445608945668
C           20.33174327494063       -0.08256023985993        0.01438609021295
