256
 energy: -447.221466208113 gnorm: 0.000528472110 xtb: 6.5.1 (b24c23e)
Cu          43.62615488302966        0.02022345345335        0.03485518751316
C           40.22170998599371        0.08447207583825        0.08503748621224
C           40.85928717569395        1.19907371227191       -0.43897208484777
C           40.18696085036881        2.33229098893184       -1.00574498639353
C           41.14806834027641        3.20018725851228       -1.40950552093122
C           42.41671759297879        2.61101480762783       -1.07880492913323
N           42.21033584386277        1.39311325837894       -0.49711926985961
C           43.66261450006762        3.19238125457429       -1.33133826850105
C           43.68031488939304        4.54893417025782       -1.92916900687471
C           44.28815843063401        4.77129490198557       -3.16730298045516
C           44.30312072397575        6.03314409312420       -3.73443604715856
C           43.72057666521020        7.11063261597128       -3.06225723515308
N           43.69893488133066        8.36675791083536       -3.64383654242510
C           43.10796640167045        6.89632087621878       -1.82492385926140
C           43.08845288175795        5.62898042663214       -1.26986580941040
C           44.89319510845122        2.58748103346863       -1.06478341019637
C           46.17118534045519        3.21469825550456       -1.24597261777606
C           47.11492962133077        2.31296150458738       -0.87276000272053
N           45.07857621618157        1.32177292171643       -0.57351747687880
C           46.42102324391956        1.13295239638289       -0.45442179439573
C           47.05388867775647       -0.03925303290259       -0.00310602054640
C           46.39087631927785       -1.19108504027698        0.45698207877244
C           47.05244257955410       -2.39755445721115        0.85141811110423
C           46.08634218138560       -3.26918542615805        1.23879005074994
C           44.82732760872968       -2.59605921753479        1.09268842827536
N           45.04564086807670       -1.33411105032794        0.60506469750750
C           43.58286931892684       -3.15724040884805        1.38897507716163
C           43.56479393972968       -4.51871706981209        1.97517828243501
C           44.20125208440145       -4.77845672648339        3.19150206261652
C           44.18146599586998       -6.04551454786213        3.74676267201953
C           43.53368235660290       -7.09130075738947        3.08418252321827
N           43.47779552058392       -8.35112692278036        3.65518425465654
C           42.89190106994668       -6.83938875310793        1.86892187742814
C           42.90794859540589       -5.56686451035071        1.32583949356821
C           42.35300431206331       -2.52731441598726        1.17673523529842
C           41.07348983006011       -3.06840484315711        1.54569599918299
C           40.13441263645142       -2.16264706995963        1.17455286504334
C           40.83184997708123       -1.05444684022099        0.58900901745414
N           42.17563747298769       -1.30028102576291        0.60496436558227
H           39.13677606996789        0.10529687491387        0.10162708985235
H           39.11619201467182        2.43229325365794       -1.09046760341137
H           41.01585869406068        4.15061688499623       -1.90105195461448
H           44.73513060521415        3.93827915833249       -3.69892330638396
H           44.76773101149721        6.19051131377414       -4.70171831796544
H           44.41476762664702        8.52801788089410       -4.33431005301853
H           43.57607858062390        9.13161462607686       -2.99960209664752
H           42.65150746333390        7.72839072432844       -1.29991689443063
H           42.62689150425253        5.47450107405910       -0.30061928727272
H           46.32332721496631        4.22289348866476       -1.59605310898367
H           48.18677233893689        2.43105205513729       -0.86966627846965
H           48.11919217882185       -2.55263826687036        0.82248597247982
H           46.21105630406326       -4.28517480188454        1.57698305576660
H           44.69847904440642       -3.96999981522233        3.71637680634772
H           44.66907740201467       -6.23162333109853        4.69749259561058
H           44.20750205142688       -8.54925369317184        4.32109545237994
H           43.30227900783938       -9.10381587017049        3.00879863428072
H           42.38453585223225       -7.64637120373798        1.35152970792245
H           42.42280037440524       -5.38380142893016        0.37322692639929
H           40.92007779348160       -4.01440008089268        2.03963471263811
H           39.06378501934896       -2.22163635281706        1.29289116336227
Cu          91.74339468287988       -0.02087363265211        0.05034496193846
C           95.14781543043487       -0.01288116781137        0.13260140076895
C           94.51093765839126       -1.06675532423001        0.77064823600887
C           95.18380190620574       -2.16543849329589        1.40123083382390
C           94.22301774148957       -2.98418093493658        1.89775383842072
C           92.95402483860973       -2.38449757113624        1.58786508666042
N           93.15990322912408       -1.22477566483619        0.89739108406704
C           91.70841149402088       -2.91974812002296        1.92821079605489
C           91.69177536297676       -4.16894942731310        2.72660785395032
C           91.09103855998764       -5.32574860569399        2.22390324588843
C           91.07735813793848       -6.49633417273915        2.96127420617702
C           91.65379515149610       -6.53006966572225        4.23360733485294
N           91.67657818182695       -7.70933197445672        4.95841108591304
C           92.25930634813034       -5.37832382798029        4.74253433979822
C           92.27780589926589       -4.21481710326925        3.99384425856110
C           90.47762528528865       -2.36476444840511        1.57013690161807
C           89.19972611895282       -2.86709032880903        1.98747006464689
C           88.25568620489743       -2.05535060302259        1.44635943750121
N           90.29184760950510       -1.25161668579873        0.79286122465053
C           88.94928414144935       -1.04852795864248        0.70182875712358
C           88.31581072071350       -0.01669860191100       -0.01378296787516
C           88.97783719533500        1.00849567590048       -0.71265831398521
C           88.31496768756898        2.00974143655601       -1.49174526714868
C           89.28070122341809        2.81344142274149       -2.00606909407254
C           90.54083911822516        2.31400728842150       -1.53458902232057
N           90.32337010713481        1.20772705362306       -0.75558054221015
C           91.78549420009188        2.86787769490412       -1.84359012673804
C           91.80401543866490        4.10893944206760       -2.65422146737404
C           91.17279576502467        5.26825376534565       -2.19657521258045
C           91.19327073092143        6.43095587779306       -2.94622085199056
C           91.83677367285100        6.45444727853114       -4.18622081588475
N           91.89356288414847        7.62601877606495       -4.92134369813576
C           92.47366868225696        5.30038969989246       -4.64968154022142
C           92.45671172838763        4.14479681958748       -3.88894595018415
C           93.01566403870834        2.33982492291605       -1.44061164557658
C           94.29536666795615        2.94478533602618       -1.69065377299983
C           95.23457515899295        2.13501522857063       -1.14100150307035
C           94.53718739680340        1.03572201118250       -0.53888813369279
N           93.19322017940026        1.18545964493822       -0.73358859289045
H           96.23273230971616       -0.00929792077938        0.15998181853474
H           96.25469076718338       -2.28970864392281        1.43968990505963
H           94.35555196593118       -3.92003464762199        2.41645169703942
H           90.64869571594537       -5.30946286084024        1.23375222403982
H           90.61848452194961       -7.39115038465358        2.55505456142488
H           90.96454799428876       -8.37655530364968        4.70746949528014
H           91.79465857281467       -7.59541880868097        5.95249716847307
H           92.71105393250276       -5.39939611735290        5.72833793699935
H           92.73401021861864       -3.32011886456529        4.40341038202122
H           89.04792048665072       -3.72053492064522        2.62836131572751
H           87.18380586853280       -2.12005483798064        1.54470402822154
H           87.24764823529556        2.07487148993267       -1.63119167924732
H           89.15477807675096        3.65986372930451       -2.66171039421788
H           90.67919021497137        5.26090293105496       -1.23084837424653
H           90.70958396185746        7.32768575097244       -2.57445229686152
H           91.16686727156072        8.29304743232326       -4.71615365708018
H           92.06568474287096        7.50245441335946       -5.90634072056122
H           92.97793773130012        5.31353880722229       -5.60981977286127
H           92.93793754625514        3.24815553493082       -4.26419235633792
H           94.44889341106511        3.87833928269931       -2.20766525970884
H           96.30533138327819        2.26537168499559       -1.12642936465124
C           52.25576304578135       -0.08307507892414       -0.02601643063496
C           51.02727753048691       -0.08037172278047       -0.02447671167361
C           49.68294758231101       -0.07123910943524       -0.01948881910560
C           48.45901492318668       -0.05995436459851       -0.01258832773374
C           53.60000598170863       -0.08211360476052       -0.02462392550236
C           54.82414038079779       -0.07618514803097       -0.02253338265565
C           68.29856360099394       -0.03090113040634        0.01661246032139
C           67.07000525741941       -0.03128563058927        0.02190248405364
C           65.72602131812518       -0.03125779900652        0.02839175384202
C           64.50186168498276       -0.03313004945703        0.03393334502348
C           69.64255432220332       -0.02987278057965        0.01046027295629
C           70.86672499455580       -0.02827727337906        0.00656827044285
C           84.34200318663146       -0.00307506370595       -0.03209852774620
C           83.11360648394049       -0.00414362087095       -0.02694772976595
C           81.76927444180882       -0.00302696608753       -0.01660459092013
C           80.54523589207986       -0.00492089474117       -0.00613432591629
C           85.68650252752225       -0.00604683478999       -0.03244526072563
C           86.91042395740649       -0.01034017526008       -0.02961252129856
Cu          59.66294789766328       -0.05035534869945        0.02082381133884
C           56.22893497211276       -0.07194895547886       -0.02052376286171
C           56.87377710346377        1.12783074096910       -0.37262800079957
C           56.19029016079150        2.34182679764986       -0.70106986187202
C           57.14327974646744        3.27617265798367       -0.95081921614346
C           58.41598910963251        2.63432496337795       -0.78726512058044
N           58.21836909815958        1.32718376169922       -0.42733988818693
C           59.65386662167003        3.26293922907988       -0.94206383435298
C           59.65161106718772        4.68903466248517       -1.35100268564136
C           59.10105183023644        5.07962046386613       -2.57376341585323
C           59.10370497641649        6.40812757854565       -2.96089246807022
C           59.64703374833045        7.38237599306195       -2.11974663011142
N           59.68769451124668        8.70703848176977       -2.52063918582143
C           60.20289953518180        6.99933163854443       -0.89658197938498
C           60.20475713470876        5.66740938262691       -0.52164711068434
C           60.89528705804640        2.65409315309012       -0.74289764247980
C           62.16423225692911        3.28863079682894       -0.95713507586471
C           63.12247441518208        2.36825353814133       -0.67789832801262
N           61.10032072802827        1.35775292783336       -0.35004626388593
C           62.44596835943904        1.16464471048174       -0.30056090714796
C           63.09724805310501       -0.03361008804700        0.04435755710373
C           62.45227609308392       -1.23583382626281        0.38746339955386
C           63.13515576980971       -2.45505360363890        0.69694460791097
C           62.18204886193060       -3.38472599469530        0.96283947629955
C           60.91006628272125       -2.73515356764495        0.82590469335514
N           61.10781442922922       -1.42858623276729        0.46450230351384
C           59.67208940785018       -3.35598954710379        1.00956580764074
C           59.67768057456601       -4.77399969633336        1.44435322520941
C           59.10209475690133       -5.76771201872868        0.64924113048346
C           59.11068395127746       -7.09168664741903        1.05151461301373
C           59.68548226798593       -7.44963689261836        2.27361407848545
N           59.73165283190237       -8.77791825690599        2.66079868319557
C           60.26620136082578       -6.46199330507157        3.07331958458252
C           60.26187691705869       -5.14199711612691        2.65883681904946
C           58.43049919353693       -2.74496720863049        0.81768987619445
C           57.16171356222397       -3.37097155089316        1.05587829759232
C           56.20351186011342       -2.45551254871965        0.76016168988541
C           56.88008473528659       -1.26227045908036        0.35144859917153
N           58.22568014155387       -1.45669680774867        0.39888331781507
H           55.11849974199213        2.45798353033305       -0.72559687825245
H           56.99927298163941        4.31292259954786       -1.20871693386132
H           58.68572909435039        4.32805847646063       -3.23628464938292
H           58.68374866656204        6.69774123744035       -3.91797478314661
H           59.00256430398106        8.96281334254513       -3.21365212478911
H           59.77727883576233        9.37492453633544       -1.77164565589186
H           60.62983978878088        7.75055759643871       -0.24117456969809
H           60.62307394293703        5.37993268630171        0.43677144452830
H           62.30232419999211        4.30326137605038       -1.29388405633779
H           64.19343984489706        2.48340125221002       -0.72795053016259
H           64.20649338134271       -2.57739157682162        0.70003303044091
H           62.32522739867149       -4.42336709182076        1.21319264294410
H           58.66213007891158       -5.49951598947648       -0.30510325102898
H           58.67074643020317       -7.85590745537872        0.42008916211248
H           59.84777700291051       -8.92897779476533        3.65012126826764
H           59.03395511039619       -9.36905376965655        2.23792777586129
H           60.71696251311029       -6.73401356743225        4.02153786274621
H           60.69940451208976       -4.37861716880854        3.29295277447736
H           57.02369383038672       -4.37685942841917        1.41814215341778
H           55.13260397993016       -2.56682077686045        0.81989478800346
Cu          75.70535401202656       -0.01279710088015        0.01546891232638
C           72.27136622937529       -0.02692114935703       -0.00058674311474
C           72.91613682797797        1.17246370846908       -0.35385944391714
C           72.23301090900759        2.38929313689445       -0.67210209284410
C           73.18610607991768        3.32142527418554       -0.92908910592608
C           74.45844589956440        2.67504127906725       -0.78089336960370
N           74.26073254104489        1.36776435118103       -0.42171070557978
C           75.69654780274998        3.29951371305368       -0.94956895143039
C           75.69291969220937        4.72613530521300       -1.35623547845284
C           75.12456311119337        5.12075486394832       -2.56953234414175
C           75.12253184231503        6.45035097341420       -2.95270304816301
C           75.68985090255569        7.42018017213262       -2.12228791593098
N           75.64579205251249        8.75709388790552       -2.47889243865725
C           76.24912265476239        7.03502800105312       -0.90128144730946
C           76.25551192210898        5.70203348377914       -0.53032576384622
C           76.93811026237714        2.68650861834130       -0.76464591637192
C           78.20652243421402        3.31666279152141       -0.99399529541251
C           79.16501450398648        2.39407005226515       -0.72258469802746
N           77.14340761090368        1.39041649232900       -0.37131141455604
C           78.48893850779862        1.19362406386619       -0.33445475958519
C           79.14041615104634       -0.00386867207680        0.01277126105560
C           78.49558858714047       -1.20271034415160        0.36739282191429
C           79.17790516044332       -2.42198851822229        0.67819643576412
C           78.22445341491641       -3.34894299428569        0.95250488404887
C           76.95288483865876       -2.69781646306547        0.81918847381694
N           77.15114554619119       -1.39293833384072        0.45228795949656
C           75.71483906375259       -3.31674504967314        1.00883468493361
C           75.71930070625274       -4.73406498506434        1.44603850906585
C           75.13728670808821       -5.72749100655609        0.65508881251794
C           75.14127358274344       -7.05037248122745        1.06066407627096
C           75.72853271602209       -7.40925961959489        2.27661440145787
N           75.69003317222349       -8.72360260250099        2.70948533039712
C           76.30229091392509       -6.41981365097743        3.07904494363816
C           76.30249154581161       -5.10076209850889        2.66125090078631
C           74.47316655352058       -2.70467538538155        0.82112255230531
C           73.20453668161728       -3.32950168039649        1.06362059107170
C           72.24635320969917       -2.41270016310980        0.77255913316527
C           72.92271846687638       -1.21960786901228        0.36306349925509
N           74.26827397425004       -1.41580005952640        0.40406765806905
H           71.16145570740468        2.50900249029968       -0.68521361386952
H           73.04230278119523        4.35929264073889       -1.18219642130402
H           74.69776310843940        4.37152790625305       -3.22736617510737
H           74.68379746718655        6.74380410605293       -3.90013162464541
H           75.54274931805082        8.93094716439509       -3.46591000544772
H           76.33680820525896        9.33937191446201       -2.03337037512028
H           76.67867499913112        7.78515330254650       -0.24629918228481
H           76.68372331559711        5.41172310148001        0.42288041737736
H           78.34375988913223        4.33023450201776       -1.33449784227820
H           80.23579633573262        2.50576112149517       -0.78389958461286
H           80.24907370423412       -2.54610358275691        0.67592561988711
H           78.36672807993331       -4.38691214654401        1.20646927705300
H           74.69480660608288       -5.45946632017042       -0.29813711737547
H           74.69160978551911       -7.81359751491733        0.43489195568936
H           76.39116725101813       -8.96806652141923        3.39051036576986
H           75.57614516387775       -9.40883835945231        1.97965373252829
H           76.74770513191689       -6.69029485607848        4.03022325660572
H           76.74191593446885       -4.33717394891278        3.29382444708073
H           73.06637369398730       -4.33540257405192        1.42554010861838
H           71.17558401470615       -2.52291503761376        0.83613395082741
