280
 energy: -478.857145188318 gnorm: 0.000332521054 xtb: 6.5.1 (b24c23e)
C           54.72965129353776        0.03871008860366        0.10654904968941
C           55.33560678478975        1.27234745288303        0.30587401828286
C           54.68123376492802        2.52286116034242        0.48935017487768
C           55.64141325858716        3.47899184036014        0.66457080306297
C           56.91363295834177        2.84126183798393        0.60479559752385
N           56.67837949643184        1.51554839233437        0.37517101831506
C           58.17575979039968        3.43079531915091        0.73821147499973
C           58.20453635322065        4.88618383120249        1.01502474643558
C           58.83089866682840        5.77576731426013        0.14242220487587
C           58.82832486004495        7.12932649617078        0.43953601180223
N           58.25540925645318        7.63083735021241        1.52910667465443
C           57.65906625653778        6.78990461025736        2.36789293439239
C           57.60524533384582        5.42142134042216        2.15489309179445
C           59.39364947173430        2.75407795569192        0.63386475476553
C           60.68661724523589        3.37596655060125        0.85653379693140
C           61.61136159550765        2.41271242397174        0.66545226314104
N           59.55446849243916        1.43558736931333        0.33583920268363
C           60.88320791898114        1.20363119335910        0.33228478207420
C           61.52451163381834       -0.01916404973933        0.05144500022013
C           60.89203549629858       -1.24746792788404       -0.21675448879644
C           61.53567261171261       -2.46926301696653       -0.54720341516688
C           60.57056694575539       -3.42090135376908       -0.72817515207323
C           59.30566249093246       -2.80924703863734       -0.50739141289037
N           59.55134308985865       -1.49471406419362       -0.21108098406854
C           58.04472811899448       -3.40895997668796       -0.59786115274928
C           58.01650496762575       -4.85810836779688       -0.90306889784927
C           58.62496098626364       -5.79024291383269       -0.06270099763034
C           58.57033685380307       -7.13525462033544       -0.39255400610994
N           57.96536173684009       -7.58933122570488       -1.48541287385067
C           57.38433766831091       -6.70774756002054       -2.29295679472749
C           57.38120347664884       -5.34423242414310       -2.04565564115354
C           56.82621078195085       -2.74356575132562       -0.42755860462082
C           55.52552428261456       -3.39433628547400       -0.46652517416572
C           54.60821084973077       -2.42637141431569       -0.26963618858373
C           55.34737841654352       -1.18745482314059       -0.10110544001451
N           56.68021476373563       -1.41862243682637       -0.19006817943234
H           53.64436495616755        0.04307348178579        0.11462497179541
H           53.61176339069419        2.66029400229047        0.48021097419622
H           55.48794341768701        4.53538109270899        0.81396082363659
H           57.40466098709147        0.81517250847399        0.26935168677001
H           59.29951811606290        5.41357784014053       -0.76482056546431
H           59.30618939989696        7.84132293823959       -0.22698851471510
H           57.20344034171307        7.22887702348592        3.25069969443041
H           57.12024579467700        4.77317383796952        2.87509497599809
H           60.84327795178141        4.40440539107380        1.13862757525788
H           62.68336482328844        2.48587446207064        0.75176195985551
H           62.60188681404691       -2.59389895642665       -0.64454023201740
H           60.71869495427470       -4.45240089287334       -1.00307038702455
H           58.82916766523810       -0.80601477771810       -0.02728047387969
H           59.11789855392199       -5.46834042913801        0.84698999067749
H           59.03267820396171       -7.87964054079149        0.24913841400402
H           56.90023310395237       -7.10879626764652       -3.17861787096468
H           56.90644484260663       -4.66146418348203       -2.74014778582758
H           55.36248084158309       -4.45017067803458       -0.61098995836261
H           53.53362648713466       -2.51190348292718       -0.22970850405053
C          105.14259727163970       -0.00736250913858        0.06839716294547
C          104.55037285149564       -1.20998359563770       -0.29407117137070
C          105.21735155098099       -2.41110797554253       -0.66561822253631
C          104.26639201690061       -3.34982399760214       -0.95038170876209
C          102.98735337201686       -2.75503630736868       -0.75196021589724
N          103.20970947022658       -1.46475798585922       -0.36329474722252
C          101.73204241865488       -3.34172562894328       -0.94483529198000
C          101.72443388479968       -4.76195009951555       -1.37083144230014
C          101.17636888685435       -5.14885278014977       -2.59322653896072
C          101.19795275594788       -6.48786126431818       -2.95001493402895
N          101.71757565423101       -7.43553999225246       -2.17628937875059
C          102.23964884989645       -7.07573891881741       -1.00827764590242
C          102.26929706190303       -5.76227162638579       -0.56658880976551
C          100.50469054243968       -2.69844407978838       -0.76860854487131
C           99.21966694213326       -3.35176826181367       -0.94049708255702
C           98.28039183187917       -2.42127623783187       -0.67456307194772
N          100.32342978066367       -1.40282412561185       -0.39138704964427
C           98.99013312345575       -1.20540482758716       -0.32832675625138
C           98.33068912709683       -0.00628796472231        0.00810091371119
C           98.95086940585021        1.21065820022002        0.34880824729908
C           98.29458648021701        2.42594951755153        0.67752392656909
C           99.25068298804850        3.36594754210235        0.94450622759793
C          100.52368777228817        2.74797218297186        0.80231952136273
N          100.29080227578689        1.44871234984671        0.43569305561527
C          101.77791147022484        3.34343124265011        0.97388577037244
C          101.78804501274253        4.77191820459427        1.36866115045774
C          101.21965501522384        5.20010467271941        2.56790569473660
C          101.25479224548967        6.54789740046156        2.88928722139177
N          101.80421236492327        7.46655265071240        2.10149014877953
C          102.34774759918007        7.06706893429088        0.95616586458042
C          102.36646959519751        5.74204085553110        0.55064960672557
C          103.00621890157467        2.69688304592436        0.80470417066426
C          104.29808786385223        3.32062461755769        1.04775601552882
C          105.22983260050084        2.37958288202645        0.79617206885599
C          104.50833944490832        1.18032719414703        0.40775682572643
N          103.17186037816597        1.40636768907219        0.43036050350336
H          106.22774535969901       -0.00406141914301        0.08398505704566
H          106.28847210261202       -2.52634885176183       -0.71199941363547
H          104.43004824530061       -4.36376559220769       -1.27749584045798
H          102.47745569742278       -0.79215259198381       -0.16197382700869
H          100.75318745163922       -4.40894782098663       -3.26203820177000
H          100.78066845645778       -6.81273435745619       -3.89863882924550
H          102.65357255244287       -7.87254440276615       -0.39721762431641
H          102.69437023732299       -5.51785011575977        0.39969180159395
H           99.07651838552462       -4.38386234840121       -1.21613104252456
H           97.20827655765208       -2.52486094333356       -0.70545906401959
H           97.22552459889401        2.55788886371195        0.70505547415554
H           99.09051428786509        4.39786403706322        1.21076398222961
H          101.01924132990354        0.76639821215824        0.25274592843026
H          100.77238913999375        4.48540236442388        3.24851846275265
H          100.82260392312412        6.90437344455668        3.81974575533857
H          102.78713778694735        7.84080810719649        0.33338949343961
H          102.80993133344677        5.46417724761108       -0.39805147257176
H          104.44563242298607        4.33588036684117        1.37902434421704
H          106.30361650272263        2.45633945074359        0.86499028165422
C           62.93373330933254       -0.02724530676416        0.03196051509645
C           64.15058196682681       -0.03110346257846        0.00886269341608
C           73.84450247044569       -0.01743795698847       -0.04342365219174
C           75.06288140881631       -0.00981060534528       -0.04269704506353
C           84.76775364106868        0.01201711865208       -0.02155603444028
C           85.98621068404552        0.01878665407475       -0.01529747576054
C           95.70279890150096       -0.00653358777539        0.00651210339943
C           96.92025451424584       -0.00789446987475        0.00454250030594
C           65.55875220603235       -0.03305492961162       -0.01265240092381
C           66.19006784316083       -1.26258483730836        0.25414062580834
C           65.55394837200944       -2.48422936891331        0.59348605753508
C           66.52307224084092       -3.44043247286429        0.73138556011438
C           67.78022279059901       -2.82965160456826        0.47363195474416
N           67.52993972689067       -1.51035530523205        0.20813068854711
C           69.03918800642442       -3.44336197040261        0.47712555562261
C           69.05922374575344       -4.90609950983675        0.71369319613949
C           69.74980642859076       -5.45235609688292        1.79544840229789
C           69.73661861332799       -6.82531771162261        1.98268039535449
N           69.09584420039492       -7.66088863552311        1.17140733181234
C           68.43869398503175       -7.14944660134295        0.13556622808360
C           68.38854068608632       -5.79024328437477       -0.13101795330856
C           70.25984845967071       -2.79539118368813        0.28051169786237
C           71.53383426115828       -3.48504070436436        0.18897898559460
C           72.47421902749849       -2.52952757600404        0.03759687573257
N           70.44552448862562       -1.45215649401815        0.15489101645400
C           71.77511767606271       -1.26054001018671        0.03542305879301
C           72.43748425803260       -0.01824257955302       -0.04608525852898
C           71.80341407642516        1.23683345334089       -0.13496411070663
C           72.43623445281887        2.50561738013442       -0.16482803805291
C           71.46649351668748        3.45814703489495       -0.32072398937355
C           70.21098189776916        2.79630886426702       -0.39261530958332
N           70.46323576866195        1.45778661849474       -0.25372885658124
C           68.95337692622550        3.38526650332647       -0.57550467931790
C           68.94132575778228        4.84791608696413       -0.81274678375734
C           68.25721111964593        5.71640043152264        0.03738084686660
C           68.27793905070443        7.07674138773059       -0.22666009897682
N           68.92091364494974        7.60398660607233       -1.26363553334359
C           69.57352418200713        6.78345922566181       -2.08054450689890
C           69.61524480709214        5.41047911161114       -1.89674189347288
C           67.73006357685473        2.71318013464257       -0.55275056699347
C           66.45180869046550        3.34694877339662       -0.82263164368635
C           65.51107983447963        2.39396881107092       -0.65864231066760
C           66.21579752368636        1.17956988421053       -0.29901112217501
N           67.54704965739946        1.39512555273726       -0.26627681896779
H           64.49117001111213       -2.60732795764884        0.72423465497075
H           66.38129588198802       -4.47460944182202        0.99937133010548
H           68.24336551452092       -0.81648175565759        0.01143334034943
H           70.27630239991932       -4.80826669192659        2.48962667498357
H           70.26349417231883       -7.27304568127352        2.82025285214399
H           67.92788996283463       -7.85733699340450       -0.51064412305093
H           67.85052550784083       -5.42058383030381       -0.99591787135003
H           71.66731502847215       -4.55425893290350        0.21716173948946
H           73.53868220804735       -2.64940987898607       -0.08047556001565
H           73.49719903489259        2.66511755380786       -0.06763323002292
H           71.60640943173016        4.52564539482899       -0.36831458604531
H           69.75113647064701        0.73541722958737       -0.24143276009915
H           67.73032770195920        5.33297545691067        0.90293850017509
H           67.75608926305415        7.77275654232149        0.42352626305269
H           70.08641901879709        7.24329440093823       -2.92023470635143
H           70.14932041220339        4.77934670245778       -2.59718028558567
H           66.31536046121894        4.37568315680951       -1.11394416787793
H           64.44322241535592        2.47674753704038       -0.78058425231045
C           76.46957165865742       -0.00989415009479       -0.04243143677234
C           77.10540681008541       -1.21059692614609        0.33104292628211
C           76.47883178635961       -2.40326227442953        0.77313730760582
C           77.45111181314711       -3.34890802843959        0.95533161186710
C           78.70134886118940       -2.75987674408014        0.62490680179663
N           78.44475139266306       -1.46029746021903        0.27954533716529
C           79.95709193527077       -3.38055777390666        0.61978736583145
C           79.97583172701873       -4.83339972624672        0.90868151993405
C           80.71051186767403       -5.34903790033206        1.97641821324288
C           80.69602764643427       -6.71481277117374        2.21038365201819
N           80.01329195331837       -7.57162642940233        1.45762547286141
C           79.31305022093609       -7.08956993110552        0.43598484190618
C           79.26087222016913       -5.73981778249446        0.12584358436245
C           81.17542028161587       -2.74800225484092        0.36567481617846
C           82.44250717079844       -3.44762081001569        0.25686487346323
C           83.38565080900004       -2.50073991319490        0.07064389108113
N           81.36629930512775       -1.40893340445960        0.20937518171400
C           82.69492624451838       -1.22759218098419        0.06417467957684
C           83.36099524857170        0.01195951115900       -0.03026268386938
C           82.72408658706145        1.26449013801301       -0.13634441345908
C           83.34881181026221        2.53680275276553       -0.16989544130991
C           82.37649875417891        3.48024916634143       -0.36300109896635
C           81.12789879164441        2.80842985032173       -0.45642119670060
N           81.38527840527844        1.47469553026863       -0.28654584913932
C           79.87302848413707        3.38090696197701       -0.70164380847784
C           79.85654243299690        4.83505495500164       -0.98414512984499
C           79.11978552947305        5.71787357149050       -0.19459982129841
C           79.13742837906233        7.07042604475876       -0.49574840459596
N           79.82517722968660        7.57708349502644       -1.51414191371477
C           80.52751691267342        6.74282065151364       -2.27390860680355
C           80.57679952053370        5.37619266927151       -2.04909604119923
C           78.65476453288528        2.69933384695524       -0.70258000573474
C           77.38791772175395        3.30662457977456       -1.06777387064888
C           76.44469560964802        2.35888388971631       -0.88630502487324
C           77.13544807118568        1.17620753973387       -0.41456213269679
N           78.46368901217670        1.39943561430916       -0.34506219866632
H           75.42050100933638       -2.51573605684289        0.93993143466983
H           77.31587698228286       -4.36119307207956        1.29938715781247
H           79.15229680571075       -0.78146282401494        0.01968083631572
H           81.27188515061556       -4.68665748097756        2.62450725348237
H           81.25658469055296       -7.13863075961175        3.03845736699131
H           78.76907366979701       -7.81428655288436       -0.16269538551731
H           78.68741460078236       -5.39486072438368       -0.72638857346666
H           82.56953328217669       -4.51723413582454        0.29750628645225
H           84.44627823303220       -2.62956068757629       -0.06995896099863
H           84.40598742080077        2.70535182285750       -0.05007561856568
H           82.51054832185720        4.54785762919676       -0.42326556310133
H           80.67875341270559        0.74689048330818       -0.27730664189882
H           78.55452547131527        5.35141874345229        0.65397971236785
H           78.57551244526226        7.77726382317677        0.10770780208445
H           81.07574020155816        7.18583344972560       -3.10018839077828
H           81.15232907761605        4.73313962182827       -2.70438760786969
H           77.26107118902279        4.31342960230505       -1.43126333229379
H           75.38399161236416        2.42553959149453       -1.06511952532320
C           87.39327503895176        0.01388128929531       -0.00816270340348
C           88.02149199077003       -1.19206282731244        0.36076481932018
C           87.38310975251531       -2.38619194417065        0.78204855281654
C           88.35052306653395       -3.32878173394057        0.99913600669599
C           89.61036272764274       -2.73595096352842        0.71441534848285
N           89.36222104541855       -1.43993196324155        0.34939584361052
C           90.86738971959950       -3.34652214202400        0.80032087230640
C           90.87029267361947       -4.78925636151455        1.14393270818448
C           91.48723987031237       -5.26008035148051        2.30229343749987
C           91.46054405699594       -6.61817764262743        2.57759248824905
N           90.87369020066730       -7.50725401639714        1.78277844914138
C           90.28483838182967       -7.06719385180865        0.67556825891540
C           90.25354032241734       -5.72851973505374        0.31799648360864
C           92.09719567350950       -2.72022979866470        0.59307102487724
C           93.37321252208892       -3.41035968013444        0.65299105819675
C           94.32215022519492       -2.47672308766894        0.43681137772466
N           92.29146617367105       -1.40123243323060        0.31749827023109
C           93.62623308958761       -1.22258815613754        0.23008035005069
C           94.29334317531000       -0.00222676158103        0.00571233571398
C           93.66725726892291        1.23848685427117       -0.22085249276266
C           94.31030770033011        2.48460073272673       -0.43431440757874
C           93.34337786861437        3.42855947999641       -0.64763937974929
C           92.07945957268898        2.78149234149229       -0.58682405260815
N           92.32517947438161        1.46284972568208       -0.31241145118552
C           90.82100652561367        3.36451621319083       -0.77930565196011
C           90.80734731786933        4.81129835601525       -1.10479896149014
C           90.17464763563765        5.72988031072267       -0.26758122766457
C           90.18887327587464        7.07388415637081       -0.60499585914140
N           90.77751187555837        7.53874532271855       -1.70235870088839
C           91.37871187005400        6.66964248841859       -2.50825033152088
C           91.42298424926867        5.30790912238721       -2.25307223848182
C           89.59329767831032        2.70614909722654       -0.69636759681675
C           88.32258947180704        3.33339755666971       -1.01149619693162
C           87.37413400353113        2.39614299686472       -0.80717936150169
C           88.06449372327873        1.20091673098342       -0.36718781055222
N           89.39659025309057        1.40906108047899       -0.33147230414515
H           86.32014009643331       -2.50086534505123        0.91334515433807
H           88.20655806450959       -4.34142857138663        1.33854609697854
H           90.07646910562606       -0.76167144049763        0.10666593155978
H           91.96770806587604       -4.57028025934058        2.98574807179265
H           91.93067169673898       -7.00825052422759        3.47554817894577
H           89.81660530237116       -7.81754734611402        0.04525789063600
H           89.77122603651686       -5.41693631525632       -0.60093126522396
H           93.50380937175356       -4.46594499238420        0.82707013820856
H           95.39215955687519       -2.60189909854853        0.41537362857681
H           95.37729430421892        2.63443089700028       -0.42705947458066
H           93.49194416481556        4.48070028164807       -0.82726799248458
H           91.60878377306884        0.75394164890467       -0.19609841830983
H           89.69097995035753        5.39686608625738        0.64296163958202
H           89.70707316646431        7.80831223045902        0.03379253314831
H           91.84671903953257        7.07926188424583       -3.39861647302890
H           91.91366995020334        4.63554344883453       -2.94676075918069
H           88.19673181357686        4.34550872993422       -1.36021347203044
H           86.30914967004132        2.47806502304541       -0.94973235433022
