266
 energy: -542.299382295362 gnorm: 0.000608042052 xtb: 6.5.1 (b24c23e)
Co          51.13260971092348        0.08781720985217        0.02138351994155
C           47.76716455339115        0.21748918292789        0.05965244318916
C           48.41527496803376       -0.34798885740679        1.13730725159569
C           47.75052803973073       -0.92702748317422        2.26501332723714
C           48.70582312544822       -1.18649735365413        3.18869124009989
C           49.95189593352593       -0.74647146131968        2.63117613108617
N           49.77111804170097       -0.30533981806466        1.34547601468831
C           51.14157851768608       -0.64731677104723        3.34141533426376
C           51.15161273116391       -0.98139039535799        4.78283849599990
C           50.31569373877952       -0.30255997215156        5.67336112611766
C           50.32350792390039       -0.61535639874523        7.02266118540066
C           51.17197496530942       -1.61555398706797        7.46879956024528
S           51.19294826467304       -2.01298561676099        9.17633839653276
O           50.68935840409959       -0.92497145937918        9.96213133902370
O           50.06674270530696       -3.18282079464344        9.15916574556909
O           52.44808698952264       -2.59865655121383        9.54360705222791
C           52.01525789180860       -2.30351498596702        6.61140919440293
C           52.00203399982046       -1.98011860968288        5.26486846304105
C           52.32189198564908       -0.23623084860161        2.73771652341860
C           53.55787693211158       -0.02672863428590        3.43035494163027
C           54.50648717197944        0.17747251183276        2.48433223018547
N           52.50236219478694       -0.08644135778027        1.38283974944828
C           53.84753606564015        0.09710161334363        1.21911822343385
C           54.51862188218374        0.02258248767420       -0.00390916754403
C           53.82823216355925       -0.04441552589621       -1.21687615410937
C           54.46424921455698       -0.17635618688356       -2.48931420250699
C           53.50630765643641        0.02801023709258       -3.42598850883475
C           52.28962796813054        0.29820862919042       -2.72019992352185
N           52.48726340432057        0.17663827484184       -1.36435810272433
C           51.11985973780472        0.75101392407360       -3.31362810089511
C           51.11298862946491        1.04022252691486       -4.76486735727011
C           50.21666583961295        0.38233010955888       -5.61127446334465
C           50.20319889644060        0.65409146741643       -6.96931305052675
C           51.09259202199232        1.59158540413628       -7.46886505010271
S           51.06929813283389        1.95160902793038       -9.18468704333088
O           51.62987889954064        3.24499489230306       -9.44533574407367
O           52.14171530059302        0.83442392142886       -9.67448452667070
O           49.79203159009677        1.63264337541138       -9.75003131267609
C           51.98962357910540        2.26373011005266       -6.65465518009122
C           51.99751580254421        1.98108497881873       -5.29882169413234
C           49.95579702288622        0.94855953100100       -2.58134693811061
C           48.73477555603104        1.47310810159158       -3.12073848267396
C           47.78808867127117        1.32313414153467       -2.16461590602156
C           48.43284257678513        0.71734338406468       -1.03914691284492
N           49.77459867952130        0.55611666226374       -1.28054867904660
H           46.68480520630462        0.26402054272964        0.07363832677617
H           46.68786254758075       -1.09955992301132        2.32531129140642
H           48.58992584964688       -1.63018060581389        4.16420897800143
H           49.66998790599152        0.48680878248436        5.30672283956289
H           49.68717078922510       -0.08883230943259        7.72283640264807
H           49.87005323165408       -3.47081368799728       10.05890968228052
H           52.67047682940576       -3.07525210599516        6.99538451958917
H           52.64497406919222       -2.51456887315814        4.57528997466057
H           53.67347400686025       -0.03570208776528        4.50192027863772
H           55.56195306821063        0.35419829607414        2.61454980149359
H           55.51162022463281       -0.38913122133834       -2.63078006418891
H           53.60447890155235        0.00355688214229       -4.49906905434348
H           49.53681022805525       -0.35582671554380       -5.20213724660511
H           49.51186791561313        0.15142141495166       -7.63393411605029
H           52.34785345029215        0.95701542512305      -10.60915407644139
H           52.66227877942745        2.99971496982718       -7.07684861478395
H           52.68123657138189        2.50641458791119       -4.64226223574408
H           48.62898840129164        1.89703806105306       -4.10613167424258
H           46.74233529757736        1.58307558808272       -2.20260648262979
Co          91.27152992164287        0.07825353694265       -0.00285776717051
C           94.63789798135502        0.19974839013372        0.00062277797525
C           93.98652555544008        0.06475406471296       -1.20678013935054
C           94.64834067620126       -0.06819996213879       -2.46898794270335
C           93.69162169970089        0.02590951865414       -3.42213856917726
C           92.44693125883856        0.23638764850034       -2.74132441118920
N           92.63024712193449        0.18118804524944       -1.38286425076186
C           91.25758818003523        0.58630023057363       -3.36596825631860
C           91.24608130028247        0.79797103401627       -4.83061861165633
C           92.07792269844390        1.75793887615055       -5.41287114153507
C           92.06874064560137        1.95850499238470       -6.78331267278863
C           91.22328777540724        1.18599149894853       -7.56291812441599
S           91.20092057467122        1.43876570622105       -9.29762936794933
O           91.70022571456731        2.74037659247801       -9.63097318276376
O           92.32890073640206        0.34480867035179       -9.70842256078879
O           89.94776485988365        1.02354839175698       -9.85540610449259
C           90.38449262924071        0.22905277902586       -7.01491447723635
C           90.39875032246806        0.03978369420087       -5.64303449134959
C           90.07853123596381        0.75241844017917       -2.65234570872046
C           88.84202616431809        1.19735342593501       -3.22161275011935
C           87.89467064229572        1.04893631634855       -2.26426143340195
N           89.90042338214033        0.40589520875565       -1.33405003211794
C           88.55437394947438        0.51938367672335       -1.11279871489150
C           87.88568448072972        0.01608591162755        0.00330272582210
C           88.57484225660535       -0.47921999330802        1.11073192282871
C           87.93868775364444       -1.05446955983314        2.25327652606055
C           88.89819942624992       -1.20596162541072        3.19803103210338
C           90.11663791488243       -0.70850349055308        2.63311466515299
N           89.91875296351229       -0.33488287039262        1.32454445739895
C           91.28964908315601       -0.50849849290872        3.34745317258611
C           91.29793195341379       -0.76205279978105        4.80544614295496
C           92.18913814936347       -1.68686917510981        5.35593789710656
C           92.20453145591350       -1.92247811252922        6.72071512072240
C           91.32186212357753       -1.22181737441681        7.52660573071930
S           91.34891352998814       -1.50202382393494        9.25711995894346
O           90.79737548746547       -0.38506739766337        9.96681879500882
O           90.26857703260757       -2.71346019364678        9.31844094404571
O           92.62466179059842       -2.01012629382667        9.66580533541746
C           90.42945002881893       -0.29581515685886        7.01120980120666
C           90.41987816722553       -0.07099754534350        5.64464620329458
C           92.45397570693736       -0.06746804436223        2.73280864750362
C           93.67830112019810        0.22088528582641        3.42183019026179
C           94.62315648026767        0.42368631704844        2.47386834519054
C           93.97485311492429        0.26918084117331        1.20695760657848
N           92.63242731518449        0.03692164809785        1.37710126765583
H           95.72032326885356        0.24544363984722        0.00202867252980
H           95.71055443609009       -0.20910849705825       -2.58949883184186
H           93.80522054981017       -0.03468571574566       -4.49236431306004
H           92.72157945416369        2.36174446939558       -4.78390629124063
H           92.70159688675815        2.70677952461978       -7.24369212151963
H           92.48863394746790        0.37009529740737      -10.65971080323873
H           89.73173976115471       -0.35267744683008       -7.65355090655472
H           89.75883114643892       -0.71166526699433       -5.19540642860075
H           88.72548827134428        1.57362230660066       -4.22488114828444
H           86.83935723145565        1.26187646987968       -2.32055584567476
H           86.88987037125544       -1.29695863508914        2.31186630980397
H           88.80010491884467       -1.61326161241042        4.19110871677290
H           92.86374559701690       -2.23272729707328        4.70675114575441
H           92.89222203259595       -2.63538839517491        7.15795780506191
H           90.04942759276751       -2.91830546270834       10.23555812358246
H           89.76187119196811        0.24307575547547        7.67175265903475
H           89.73990933316145        0.66005532723894        5.22307357935373
H           93.78703413217063        0.25865376547065        4.49359478971588
H           95.67012595770051        0.64822912169203        2.60062583253274
C           57.14473190616629       -0.00151307872767       -0.01770377718256
C           55.92245999593516        0.00767976291481       -0.01356708493119
C           58.49401870635165       -0.00931154948401       -0.02484370517582
C           59.71655046570714       -0.01470991613858       -0.02735173641416
C           70.52477517384740       -0.05039707385134       -0.01371605908294
C           69.30165317068347       -0.04528459967790       -0.01432188620759
C           71.87273099545284       -0.05077516954737       -0.01476620383242
C           73.09580642952922       -0.05167065665909       -0.01333029799511
C           83.90553523051211       -0.02908123604087        0.01508153428094
C           82.68441454586257       -0.03317932029433        0.01147738203123
C           85.25752311349818       -0.01658098951955        0.01197050039687
C           86.47831017534374       -0.00081098556547        0.00886739837050
Co          64.50934371208545       -0.03768498907726       -0.00804998982719
C           61.11939971001599       -0.01595215684964       -0.03053197774926
C           61.80452752471337        0.81262293589402        0.86352511759453
C           61.16338030236862        1.65803504080164        1.81965099182205
C           62.11902255523618        2.48720935918190        2.30742836809150
C           63.33888498166820        2.14737053256197        1.63988023197139
N           63.14544565020406        1.07136218396123        0.80779932243465
C           64.51209679955606        2.88823519355782        1.71271992860717
C           64.50592332587422        4.16539647377753        2.45956845581381
C           65.38329312369885        4.36442236492334        3.52863059533306
C           65.38081814313475        5.56097030938091        4.22630608492533
C           64.49496008945725        6.55395145721880        3.84102937190961
S           64.49936005686045        8.07714049381820        4.71024238626613
O           63.95501923833352        9.12991744210805        3.90399658307621
O           63.40250716581127        7.70277197864318        5.84710272855889
O           65.76450014223178        8.28714861656122        5.34842679332850
C           63.61600539711794        6.38784982143621        2.78313525219307
C           63.62334721923152        5.18580553649296        2.09527500474233
C           65.68728574270830        2.46593632481936        1.10681959589552
C           66.91594214945620        3.20163323669961        1.11386617873245
C           67.87232403131176        2.36756705535071        0.63750481295489
N           65.87705087300900        1.22363391826399        0.54709293672916
C           67.22179309211074        1.13454655167808        0.32570436046389
C           67.90010110068212       -0.03885887946958       -0.01949368635590
C           67.21312965316628       -1.20466935441453       -0.37410358504630
C           67.85279633047811       -2.44327600164744       -0.68518797652213
C           66.89350965039087       -3.26114016888178       -1.18421014849652
C           65.67377945896045       -2.51126339464980       -1.18702385073354
N           65.87207134687431       -1.27340317543386       -0.62201988103398
C           64.49871366430996       -2.91686523875937       -1.80523912041612
C           64.49041380215488       -4.18610262344770       -2.56562412624886
C           65.37084468365158       -4.37462529697130       -3.63406806420725
C           65.37052531210456       -5.56424465252602       -4.34345822857730
C           64.48412431092495       -6.56122237838143       -3.96985633239775
S           64.49289314125159       -8.07710341693656       -4.85161607729613
O           63.94443619984039       -9.13629060463922       -4.05649288889403
O           63.40136588731348       -7.69457106397304       -5.99123553960688
O           65.76108890881321       -8.28213110009148       -5.48523323694280
C           63.60239362110215       -6.40557992750121       -2.91265815087537
C           63.60727464669187       -5.21012323451568       -2.21333485291272
C           63.32947660064741       -2.17139210297174       -1.72540054820131
C           62.10559729503967       -2.50582634479207       -2.38867784939516
C           61.15264540554899       -1.68246775102192       -1.88659469641238
C           61.80005186326685       -0.84317618607822       -0.92909637272238
N           63.14246873814001       -1.09642750413446       -0.88925671565042
H           60.11450293161854        1.61935015580992        2.06561169146250
H           62.01705982172379        3.26122016762781        3.05052039237460
H           66.05976688096814        3.57021069642079        3.82195552706786
H           66.05724790547808        5.72676314799423        5.05532541048814
H           63.15643605904951        8.49055332187004        6.34723181421332
H           62.94505814712111        7.18966808874178        2.50151007503149
H           62.95354511046026        5.04012536433116        1.25584809596233
H           67.02367912874723        4.22118263432597        1.44617663463684
H           68.92646108282423        2.55327225320622        0.50933256928211
H           68.90231901661610       -2.64354441903977       -0.54191053149156
H           66.99336972275474       -4.27952539810522       -1.52261716508510
H           66.04872466216950       -3.57777245433095       -3.91681283856041
H           66.04944357284614       -5.72189976945894       -5.17203133260730
H           63.15419918175745       -8.48035979288902       -6.49392516667942
H           62.93163631068959       -7.21064338583261       -2.63999060458721
H           62.93567227487529       -5.07307709342247       -1.37389958586925
H           61.99889140138079       -3.27494992666365       -3.13616019413283
H           60.10172403369916       -1.64323539617297       -2.12367037390048
Co          77.88860012275413       -0.02826856558470       -0.03134368882195
C           74.49761088216869       -0.04760460751600       -0.01428784150315
C           75.17673358716974        0.87591890797434        0.78653466510237
C           74.52631058549923        1.79976815541274        1.66091747480903
C           75.48102550890054        2.65408698773246        2.10311614831268
C           76.70919420646327        2.25637788754380        1.48306427262551
N           76.52019600699414        1.11644002057929        0.73597270904709
C           77.88382924291328        2.99411816127916        1.51680195917233
C           77.89107650980897        4.30657188491727        2.19977889577307
C           78.77774935465577        4.54203246755672        3.25398945871038
C           78.78898526349006        5.76498237589094        3.90382353867711
C           77.90730185297230        6.74828116815214        3.48561724524604
S           77.92504815596965        8.30281010325882        4.29774454640612
O           77.40186188125105        9.33257542540707        3.44873248490587
O           76.81180491858318        7.98828171778874        5.43656487682809
O           79.18784808537663        8.51719710476807        4.93856089021450
C           77.02191040756847        6.54761129034355        2.43910993874238
C           77.01604486415700        5.31943498179203        1.79863969308380
C           79.05845368872312        2.53372467355146        0.93383158474280
C           80.28046133710087        3.27708166995027        0.87213426158261
C           81.23759372292342        2.41914972688237        0.44120051831600
N           79.25151196962662        1.25559752021828        0.46934109970527
C           80.59520435119967        1.16058597081003        0.23228111203391
C           81.27821644278320       -0.03630136675510        0.00548526228468
C           80.59892345415768       -1.23287119750291       -0.23243087927025
C           81.24622817033327       -2.48795266992963       -0.44806849120831
C           80.29563022775704       -3.34296502337807       -0.89845648275160
C           79.07221647807927       -2.60204417274477       -0.96246822475170
N           79.25655047928940       -1.32997623121578       -0.47753490997705
C           77.90340835396118       -3.06109154628124       -1.55734735922446
C           77.91751197532940       -4.36772786547357       -2.25172368849002
C           78.80124961917431       -4.58946824533822       -3.31119243965266
C           78.81281687309735       -5.80539700883378       -3.97425766836339
C           77.93554387650423       -6.79553037754744       -3.56288345463385
S           77.95031647704764       -8.33983652097261       -4.39420111446867
O           77.41746454483237       -9.37723256927067       -3.56064685019275
O           76.84513781743051       -8.00360810989882       -5.53481268613752
O           79.21492280001704       -8.55373053613821       -5.03186651032037
C           77.05487547048050       -6.60914386044061       -2.50982055878907
C           77.04789818042795       -5.38762868185337       -1.85684991147945
C           76.72515950145943       -2.32896613189667       -1.52367368171419
C           75.50130636217197       -2.72748741392557       -2.15141818396844
C           74.54016524723680       -1.88311360378234       -1.70339911328690
C           75.18270143513595       -0.96394000016063       -0.81866928628200
N           76.52630299012057       -1.20053264028142       -0.76220309138697
H           73.47306588264041        1.78779690360874        1.89044701429746
H           75.37271416057433        3.48291185260520        2.78347001745815
H           79.45050462292120        3.75491653250676        3.57389693862667
H           79.47189682632593        5.95795406747558        4.72157041140781
H           76.53360355028053        8.80578157195009        5.86741507493806
H           76.35565403418885        7.34305729371973        2.12959130743140
H           76.34132631544713        5.14726879185039        0.96822767716675
H           80.38270533745786        4.31901831369596        1.12806858010270
H           82.28808275218208        2.60371557650092        0.28476693141958
H           82.29590720012958       -2.67120473843480       -0.28462829317896
H           80.40309926372279       -4.38102630910518       -1.16771012301003
H           79.47064585275835       -3.79714104225494       -3.62523548250980
H           79.49231267890309       -5.98768861506343       -4.79730365664487
H           76.57957991734169       -8.81050462298836       -5.99273098290383
H           76.39227780795466       -7.40978499043565       -2.20593448665081
H           76.37568924119628       -5.22554277260045       -1.02238891512226
H           75.40031772500386       -3.54913480030629       -2.84157255332220
H           73.48773295009751       -1.87426976451905       -1.93681068282913
