193
 energy: -375.210149674922 gnorm: 0.000715725865 xtb: 6.5.1 (b24c23e)
Zn          33.24667573941526        0.01645277304152       -0.06178857743545
C           29.83906426080253        0.05776119547392       -0.18517222035222
C           30.47157002372242        1.29407225206472       -0.13330055845611
C           29.79921487986550        2.56234243446319       -0.08943575778664
C           30.75899122138837        3.51849259824739       -0.02385201528335
C           32.03138924962595        2.84613495886030       -0.03756890381296
N           31.82108421534819        1.49912879659222       -0.09681484614442
C           33.28279532342862        3.47089606862140        0.02874522827354
C           33.29930901293347        4.95565791348729        0.07533117701159
C           32.77817410033923        5.69745945619890       -0.98487079055958
C           32.79859768799398        7.08665168395219       -0.94105376475021
O           32.30173155437016        7.81686478333622       -1.96986245414966
C           33.33520173345939        7.73964807235846        0.16951929076326
O           33.33941538466628        9.11030396498141        0.18655778650481
C           33.85225072696252        6.99922736857951        1.22935811119751
O           34.35864858700769        7.70961325874027        2.28650792169237
C           33.83965064053292        5.61072296161287        1.18533683323730
C           34.52006085218142        2.81744216298505        0.05397906626062
C           35.80181720598052        3.46657501836834        0.06173747336066
C           36.74559885181652        2.49048085387552        0.06407678418668
N           34.71062059402686        1.46108219388040        0.04125178507674
C           36.05173049730389        1.23667213427736        0.05079834678131
C           36.68006867612664       -0.02541521911235        0.03395885013675
C           36.02328269738529       -1.27190139837518       -0.00383088461743
C           36.68825365691879       -2.54119596260439       -0.03929448839548
C           35.72268830753848       -3.49420148224197       -0.08486410123298
C           34.45602938217836       -2.81572279218394       -0.07135141564055
N           34.67725845685049       -1.46459898572475       -0.02763785728158
C           33.20472448331038       -3.43862955174676       -0.13087414533729
C           33.18665166986982       -4.92419244492503       -0.15605556323831
C           33.69366649550325       -5.64940792948013        0.92230951798497
C           33.67367425903019       -7.03908168478299        0.89995769235615
O           34.15686701721027       -7.75321157650457        1.94638987718524
C           33.15215379341864       -7.70913184293269       -0.20778570505547
O           33.14928067152866       -9.08011739260318       -0.20455101578622
C           32.64895266543096       -6.98518599006662       -1.28543598631909
O           32.15800307502353       -7.71198358719636       -2.33924743786387
C           32.66037457662125       -5.59608412467336       -1.26266363786630
C           31.96762064921374       -2.78347080875531       -0.17034461680262
C           30.68058796146850       -3.42694563137700       -0.18967457794676
C           29.74228808447137       -2.44725750969606       -0.21016892911094
C           30.44299642823788       -1.19397882174071       -0.19347521362718
N           31.78736692510604       -1.43102304929466       -0.16717276572867
H           28.75371053080591        0.07093612744802       -0.20913819275434
H           28.72827801529584        2.69211682382438       -0.10031726176198
H           30.62180333234015        4.58609708592077        0.03907969697798
H           32.37292816243680        5.20199678385851       -1.85768581465213
H           32.40763957691077        8.75804145576949       -1.75390327894653
H           33.74485220335601        9.39648260893573        1.02052042510560
H           34.69502910473695        7.11510389166846        2.96985195966613
H           34.23188431118827        5.04098475324333        2.01963410107194
H           35.95927227775125        4.53314915848798        0.05070181163432
H           37.81818871299044        2.60285606076403        0.06752454822346
H           37.75800499109291       -2.67785464549736       -0.03481393853397
H           35.85492201904518       -4.56294293614909       -0.13533471397283
H           34.08880104998217       -5.14005668262602        1.79180464011771
H           34.05549670932593       -8.69762703619671        1.74281424887833
H           32.75763204298929       -9.37865420923569       -1.04089827675719
H           31.82977384300513       -7.12760722558004       -3.03492206375745
H           32.27928032857684       -5.03959983912058       -2.11096593157242
H           30.51901219400226       -4.49307691115849       -0.17584154900002
H           28.66869208069250       -2.55258539466849       -0.22661044041049
Zn          60.20323383982131       -0.04677897513582       -0.03495654152031
C           63.60941408550068       -0.07590324829142       -0.20403359050972
C           62.97486548502386       -1.30947757271020       -0.28675941760421
C           63.64476975498471       -2.57478755950843       -0.39935971780211
C           62.68369864960775       -3.53134466671803       -0.43262032819778
C           61.41287511832435       -2.86091469973685       -0.35112547600854
N           61.62543655300744       -1.51636131851633       -0.25633675941718
C           60.16101656182154       -3.48819173679329       -0.34165113796867
C           60.14204620432731       -4.96843115397841       -0.46735957078176
C           60.64339529243169       -5.58200272207581       -1.61535825913833
C           60.62042004199027       -6.96684270421157       -1.73307299480231
O           61.09791898403762       -7.57257610730885       -2.84820292035416
C           60.10153280276732       -7.74431465184908       -0.69670755689288
O           60.09456608187700       -9.10780742939712       -0.83880220648970
C           59.60444770624356       -7.13196682238268        0.45073400691864
O           59.11489250296540       -7.96024544996662        1.42719716759717
C           59.61916035452582       -5.74774841626142        0.56813184894122
C           58.92550262132315       -2.84149084397661       -0.22646795162963
C           57.64271254971979       -3.48658234749197       -0.27919744827475
C           56.70079414057444       -2.51663307181641       -0.15536911004651
N           58.73734596135457       -1.49256348362314       -0.08109651964606
C           57.39679846679780       -1.26992288084716       -0.03225265221295
C           56.77109109225548       -0.01359952135489        0.10189147748124
C           57.43025554657661        1.22821287518245        0.20205304804402
C           56.76764251261404        2.49383404460059        0.32011574391112
C           57.73469490487358        3.44483004927542        0.37435911479943
C           58.99993194912777        2.76811608881198        0.29564974975930
N           58.77628806474243        1.42103322233841        0.18659896831481
C           60.25155909587206        3.39279061055393        0.29255654467229
C           60.27234192603882        4.87168266985832        0.43609774422407
C           59.78640486697886        5.46974241774894        1.59873888640137
C           59.80949442154103        6.85300875475342        1.73390481861388
O           59.34713314080395        7.44372241177919        2.86317042643357
C           60.31260024128780        7.64426848157040        0.70005131284444
O           60.31927519341914        9.00576995313387        0.85919859299631
C           60.79424782320920        7.04720235403407       -0.46189085686676
O           61.26809010465571        7.88851511132510       -1.43514416746722
C           60.78012415021853        5.66446317309314       -0.59656674886038
C           61.48681080910282        2.74590554981714        0.16278872330768
C           62.77458527390090        3.38707856191896        0.19947993428929
C           63.71074801277103        2.41575160484935        0.05542941988039
C           63.00800214575853        1.16891374500563       -0.06115019113154
N           61.66454822510306        1.40187113422331        0.00981300747168
H           64.69433240397798       -0.08693623207554       -0.24362499415337
H           64.71516571713175       -2.70323068728876       -0.43975254509032
H           62.81908997062123       -4.59912949538068       -0.49649665418307
H           61.03498484456830       -4.98841921052462       -2.43134287430903
H           60.99213200286665       -8.53235509896715       -2.74213824616532
H           59.70202938873326       -9.48842982749605       -0.03711058708594
H           58.79126904282225       -7.44844095104882        2.18004517019672
H           59.24210210056220       -5.27868332471114        1.46942479719904
H           57.48345023842995       -4.54484437112277       -0.41037946011821
H           55.62809635891271       -2.62795269726140       -0.15374598976331
H           55.69828457105242        2.63003317176733        0.35154996820704
H           57.60454512618042        4.51241279848962        0.44889301021446
H           59.40535213971903        4.86505574802051        2.41159990955924
H           59.44486497665356        8.40531039032304        2.76575843419246
H           60.69334921069364        9.39793055950349        0.05416490701977
H           61.57985906044988        7.38668393614018       -2.19948375838643
H           61.14471685455152        5.20747913030972       -1.50915017120780
H           62.93804296530507        4.44478890472743        0.33164097519952
H           64.78422061992566        2.52195251498467        0.03655390088561
C           39.30811808982337       -0.04329381178791        0.03636499576515
C           38.08567557713473       -0.03915625524485        0.03993070286607
C           40.65750604528029       -0.04400792692457        0.02882007785571
C           41.88007852896040       -0.04103688540872        0.01700710909591
C           52.79385971585607        0.01020691845834        0.10719797075458
C           51.57144490416309        0.00877292699948        0.08720544422399
C           54.14318078472748        0.00698273726101        0.11753731100255
C           55.36563273427222        0.00132039965036        0.11865218085149
Zn          46.72643610651072       -0.01456132819326        0.01763568005951
C           43.28509824737984       -0.03380335012625        0.00976217639282
C           43.92298637447824        1.21993315165239        0.10950658478721
C           43.23855860710484        2.47125044951845        0.24247388869142
C           44.18937809995121        3.43938846151585        0.30006633505928
C           45.46438647986981        2.78738565635390        0.19558499521612
N           45.26525459505166        1.43641729877963        0.08975322084275
C           46.70675569678718        3.43127338540742        0.22536084193242
C           46.69503440079886        4.91427520929588        0.30305551952370
C           47.25886799779226        5.56894929263215        1.39841936350385
C           47.24828079149609        6.95847310202653        1.48637785034680
O           47.78527026308721        7.60574671302054        2.55398583850756
C           46.67374892337924        7.71431394734920        0.45962475803568
O           46.65103137697811        9.07204565684659        0.51356793871967
C           46.11577814222964        7.05153715736757       -0.63658448529640
O           45.57347005895337        7.85032232205347       -1.61104050441056
C           46.11669070094700        5.66630933087723       -0.72114494534579
C           47.95683152082162        2.80352879249900        0.18945321006855
C           49.22534799136404        3.47649207276389        0.17916841704573
C           50.18673749713703        2.51809442132459        0.13997242702347
N           48.17065006311291        1.45144643745523        0.13890014500367
C           49.51544557920130        1.25279170982937        0.11340856726153
C           50.16659106071106        0.00302454989004        0.06409593039366
C           49.52910830461029       -1.25183393487725       -0.01416855280635
C           50.21265764726933       -2.51066529619943       -0.04750208970956
C           49.26206531835719       -3.47619016822845       -0.13506400175005
C           47.98785731130449       -2.81432690967334       -0.16289287875009
N           48.18709032692815       -1.46203473058876       -0.07836793292813
C           46.74588681017327       -3.45399550514816       -0.23854626395209
C           46.75697865558020       -4.93481093356008       -0.36629693376409
C           47.33772293396235       -5.52969975657212       -1.48665982692182
C           47.33616140552638       -6.91374798219644       -1.61698450596496
O           47.88243449584596       -7.50370671113591       -2.70652538484848
C           46.75859003818663       -7.70298583232382       -0.62106089282019
O           46.78073998100812       -9.08274344905694       -0.78255100944099
C           46.21316358810374       -7.11173514483951        0.51708086504944
O           45.68349383501709       -7.88467526280847        1.50788414048671
C           46.19530175377974       -5.72663666902888        0.63571005355365
C           45.49578115978453       -2.82683031796469       -0.20763458413668
C           44.22839716292090       -3.49238106949791       -0.32298299012451
C           43.26645036317847       -2.53693887818848       -0.24874635631347
C           43.93635747890354       -1.27913780213429       -0.09961028249470
N           45.28112771182601       -1.47999996948351       -0.08253172795032
H           42.16753490865317        2.58739717591781        0.29201592623728
H           44.04085476105762        4.50080080183833        0.41746792312483
H           47.69500793873387        4.99262366120835        2.20665240958055
H           48.15530943020752        6.97966399865484        3.18999454855551
H           46.21320729385264        9.39890416902888       -0.28882557758759
H           45.21245453446841        7.31643546015330       -2.33057305841664
H           45.68808293100056        5.17644570575334       -1.58762833863956
H           49.36297079660896        4.54575791260255        0.18851546145791
H           51.25692001506859        2.64995647008696        0.12097547252882
H           51.28318662085879       -2.63320287646337       -0.00394822834294
H           49.40933582017407       -4.54366572516207       -0.16652614763198
H           47.77041962544526       -4.92407803911063       -2.27244064356842
H           47.79126203369518       -8.46648476081789       -2.60961268875252
H           45.91637672436629       -9.46352515156623       -0.57953518462571
H           45.98689426335040       -8.79885902193952        1.41176744426191
H           45.76829620889391       -5.27675789842387        1.52265052901940
H           44.09275547842060       -4.55394783223406       -0.45330116449363
H           42.19670676237256       -2.66426594505516       -0.29857175940732
