128
 energy: -231.186033515520 gnorm: 0.000489572263 xtb: 6.5.1 (b24c23e)
Fe          13.30169629796474        0.03262089664671       -0.11217430142613
C            9.91500892761899        0.08886584424088       -0.22287032880063
C           10.57719433581643        1.29728601363958       -0.16103300088027
C            9.90859054817339        2.56319523633961       -0.13346291410145
C           10.86485888043009        3.50246288775481        0.05421513704898
C           12.11917089758592        2.80949040001138        0.12233909059681
N           11.93020108852672        1.46157456469576       -0.01829480773057
C           13.33761127463040        3.42982168294095        0.37687035270003
C           13.35483046810116        4.89524934149948        0.59757899204991
C           13.72565813283631        5.41429235616379        1.84120203500657
C           13.73924981112234        6.78004351720539        2.04988552875436
C           13.38866221985568        7.65679238515393        1.01797605652449
C           13.41415571837979        9.11049704266268        1.26467325832794
O           13.72319306523657        9.60483272226230        2.31830455318186
C           13.02236629613900        7.13840290754983       -0.22629586108125
C           13.00332498460340        5.77034881019459       -0.43318586530096
C           14.54204270183877        2.74254915891441        0.41711135762250
C           15.81396169222075        3.37797891172246        0.59577150900173
C           16.75572748753382        2.41786555461674        0.43700688097121
N           14.70907152990272        1.39925463573484        0.17576958538621
C           16.05746502666715        1.19997163574899        0.16765008011234
C           16.70942260420828       -0.01107922695793       -0.09677073278562
C           16.02604963227370       -1.21442964608375       -0.30905428755845
C           16.69037800418721       -2.45412787344118       -0.56310029120151
C           15.72751186045000       -3.40514079040580       -0.62177198978985
C           14.47703980346154       -2.74088619276019       -0.40266049093407
N           14.67590516631645       -1.39151229382687       -0.23647217281751
C           13.25106545728205       -3.39145312250248       -0.36644696596101
C           13.23156640124112       -4.86710928159903       -0.48666329795869
C           12.58233018437963       -5.47953179675382       -1.56228161808974
C           12.56725332866089       -6.85804120744442       -1.67867767497461
C           13.19786205852835       -7.65222143184615       -0.71796874407408
C           13.19423683693655       -9.12341232767537       -0.81827212083138
O           13.72592277823898       -9.84982073868515       -0.01843033616814
C           13.84637804838098       -7.03955149430108        0.35936437868696
C           13.86568384378463       -5.66272486022593        0.47232413988648
C           12.04084070633793       -2.71652552845827       -0.24729300878652
C           10.76181688253039       -3.36519135932802       -0.20275862545761
C            9.82736910666804       -2.38611445259598       -0.18485944372150
C           10.53644116094006       -1.14237831394469       -0.19645436551034
N           11.88989086391454       -1.35694806403257       -0.20012335316788
H            8.83211883418829        0.10764758828721       -0.27240434554128
H            8.84260926529999        2.69415958217770       -0.23023107999731
H           10.74281903532114        4.56910691870665        0.14971109488120
H           13.98877590525422        4.73572649739699        2.64467377583316
H           14.02024517515922        7.19186259705029        3.01322642243631
H           13.12102032762252        9.72680371929697        0.38808612014477
H           12.75332034683757        7.81213688035399       -1.03332679171906
H           12.73039589493415        5.37059368738512       -1.40326938732447
H           15.95783801120065        4.42732325655998        0.79471741434954
H           17.82833162842263        2.51146697186335        0.48960884444160
H           17.75646016869736       -2.56665679781742       -0.67678383793169
H           15.84276184606273       -4.46032092936998       -0.80822195140277
H           12.10376081925398       -4.86520286815421       -2.31662385071930
H           12.06565045820039       -7.32516188137553       -2.51998841735577
H           12.65476535495957       -9.51833205153891       -1.70552236779948
H           14.33118303769401       -7.66445872551663        1.10171764845696
H           14.35944147266091       -5.19059529121322        1.31408573315521
H           10.61089665125485       -4.43225320157373       -0.18442016134885
H            8.75319612452972       -2.47749012803210       -0.15915554464173
Fe          31.84850409180529       -0.01982957447823       -0.11521299858917
C           35.23533505453494       -0.05645073019525       -0.23420234193171
C           34.57429056228820       -1.26199298010016       -0.34496588005872
C           35.24401393765538       -2.51830958157914       -0.49814483829113
C           34.28869350745506       -3.47564122030742       -0.44541358941100
C           33.03380625021195       -2.80058715629652       -0.27890577448904
N           33.22149761090117       -1.44618872913601       -0.22660374838293
C           31.81596088250844       -3.45188400679468       -0.11532283422998
C           31.79972031196231       -4.93384573209873       -0.10560504104152
C           31.42988887288903       -5.62475184185700        1.05172302985434
C           31.41605810632978       -7.00629075631529        1.06367299349694
C           31.76538989698549       -7.72710261934551       -0.08300375955589
C           31.73903744758617       -9.20112558856784       -0.04604726569170
O           31.43040855317728       -9.84040664283421        0.92663218070513
C           32.13108775253531       -7.03676195548262       -1.24092651032072
C           32.15044871200050       -5.65316293533006       -1.25075328399659
C           30.61088933056342       -2.77845102258736        0.02249879879770
C           29.33963231661605       -3.43415540469361        0.10905762262589
C           28.39689766783628       -2.46212745849381        0.09002227752375
N           30.44250553382551       -1.41465144768882       -0.02433638717370
C           29.09388458546198       -1.21752052377754       -0.00259973703129
C           28.44056306614262        0.01810106475764       -0.09087899656643
C           29.12273528576620        1.24014280706984       -0.13036143843843
C           28.45725968304276        2.50274502030581       -0.20573456104460
C           29.41939455424299        3.45331396414825       -0.13017223855354
C           30.67050117121842        2.76577444231447       -0.00831776966586
N           30.47278876829285        1.40625056611368       -0.03495542215590
C           31.89593704726726        3.40551424804504        0.11983602060903
C           31.91469923652682        4.88329189236522        0.21043432087548
C           32.56371455718904        5.64253039352384       -0.76725169240636
C           32.57937217320656        7.02353528946603       -0.68595383580985
C           31.94956473714338        7.67284070047874        0.37850586015133
C           31.95413856092361        9.14324466023736        0.48917566304122
O           31.42439710917993        9.74831926841970        1.38551695613188
C           31.30096937018560        6.91311411942553        1.35765748311451
C           31.28094982764286        5.53426677194669        1.27311565762398
C           33.10671755437204        2.72148210952013        0.14231582671624
C           34.38506956738411        3.35842973146215        0.27918823525323
C           35.32051202243589        2.38778081650116        0.15714350161347
C           34.61269655574169        1.15773548718488       -0.03194958894350
N           33.25901419334184        1.36925101359232       -0.00505503508174
H           36.31820388693144       -0.06678402415675       -0.28660166449304
H           36.31006054214888       -2.63311815791895       -0.61304555727782
H           34.41169046595132       -4.54492019433750       -0.50253782924175
H           31.16751095945649       -5.06751263862472        1.94385447850860
H           31.13562787426187       -7.55115251022726        1.95869427290367
H           32.03108451477160       -9.68635704803919       -1.00176636927946
H           32.39926453432521       -7.58868288523739       -2.13596358331878
H           32.42286985115124       -5.11931745516062       -2.15416681331335
H           29.19687907634257       -4.50131941619660        0.15572245572876
H           27.32439887697336       -2.56322537122163        0.12946637718292
H           27.39098560654782        2.62940697669963       -0.30115564869012
H           29.30322850845846        4.52417780899930       -0.16534953057901
H           33.04180339547396        5.14178530270520       -1.60160983679339
H           33.08094022729926        7.60563603811135       -1.45224735873054
H           32.49507960992617        9.66042113149191       -0.33183332322188
H           30.81667483915023        7.42600795779520        2.18167750739179
H           30.78712553245434        4.94711405479893        2.03905126375167
H           34.53486059264990        4.41206647330171        0.44990130451324
H           36.39458358458332        2.47568797092325        0.19581348664522
C           18.10959929709876       -0.01875763077860       -0.12945775143704
C           19.33591025034761       -0.01210160028600       -0.15127448244551
C           20.67509699045528       -0.00336340263286       -0.16748202793936
C           21.90779033885850        0.01096294644121       -0.17721863185462
C           23.24219108376872        0.02136941269704       -0.17370098653251
C           24.47498644727236        0.02993858883905       -0.16505311877819
C           25.81417207218499        0.03218812216842       -0.14614708171199
C           27.04039454323381        0.03002376351103       -0.12214106493485
