242
 energy: -436.199621592191 gnorm: 0.000855228353 xtb: 6.5.1 (b24c23e)
Fe          48.53831444485431       -0.09108721101832       -0.07890765961435
C           45.14408548680859        0.01863470794116       -0.18696841665383
C           45.79335626562267        0.93658305595989        0.61199800847609
C           45.11942951896059        1.92195584883725        1.40293290305853
C           46.07135797069147        2.54782986746219        2.13578115523721
C           47.32215131434321        1.94489030768967        1.78592296815812
N           47.14721540346027        0.98496340011811        0.83309047648970
C           48.53503152183698        2.26885671095213        2.39933653061117
C           48.53053110710363        3.23227986710042        3.43087342560386
C           48.52216242796851        4.06721905910529        4.31145636357783
C           48.51069138934485        5.04279466254020        5.33453663261594
C           49.69161320984366        5.44331385486663        5.97036769585130
C           49.62508602842437        6.40475800903023        6.96302771576314
N           48.48611229714486        6.97408222271073        7.34914872644782
C           47.35901517944223        6.59847493448866        6.74982968720921
C           47.31691005928746        5.64661293741203        5.74676525070312
C           49.74979838590557        1.69001961677415        2.03009828774580
C           50.99822328413907        2.00807772213882        2.65064914868692
C           51.95676770234957        1.34713113078651        1.95598421347792
N           49.93575773864303        0.82347711002919        0.98707491943640
C           51.28667929935493        0.62837186791627        0.91784437881417
C           51.95419396736493       -0.08870718591896       -0.07890022817744
C           51.28826663077198       -0.81607588518333       -1.06983841384324
C           51.96282254179792       -1.57856987840515       -2.07363593573187
C           51.00733402354118       -2.26755872432638       -2.74448635246577
C           49.75524636753690       -1.91405106016054       -2.15166383645290
N           49.93595595391994       -0.99978042866542       -1.14930971263362
C           48.53754847672722       -2.48486761408186       -2.52425728721932
C           48.54251490689401       -3.49763542652317       -3.50735882052635
C           48.55352806383947       -4.37305800061293       -4.34767947597097
C           48.57338169392931       -5.39254917815333       -5.32686410607139
C           49.77559123462266       -5.81854808241547       -5.90382175587513
C           49.74319580488200       -6.82016878079498       -6.85759142084958
N           48.61790586566319       -7.40569327417383       -7.25934074131721
C           47.47093442990910       -7.00646373506535       -6.71561261587951
C           47.39436719119389       -6.01381256567200       -5.75491080123245
C           47.31510931871289       -2.08882318638934       -1.97640978213456
C           46.05407726251641       -2.64117309399454       -2.36992857192150
C           45.09929757682625       -1.92704735306037       -1.72665182193315
C           45.78279396348441       -0.94810317970482       -0.93610464210012
N           47.14110800696204       -1.07358560793384       -1.08226864108150
H           44.06074548332317        0.05037518181272       -0.21793614188762
H           44.05422055688419        2.08992333911492        1.39290983778885
H           45.95529902163546        3.34186697577385        2.85601923414055
H           50.64105065342979        5.00574153568025        5.68642252529843
H           50.52568588687463        6.73507158875920        7.47260368916825
H           46.44810856749096        7.08285758701910        7.08965000191923
H           46.37668803266784        5.37026971429897        5.28503731754344
H           51.11099292562279        2.66022202421407        3.50179135099355
H           53.02309568899760        1.34148856759475        2.11515171893346
H           53.03030736487760       -1.58648889683556       -2.22408299068287
H           51.12460657085385       -2.95828374679736       -3.56396413085422
H           50.71479561356594       -5.36861615660179       -5.60542031380823
H           50.66080129866374       -7.17023367039880       -7.32162259481681
H           46.57216647167142       -7.50541059864072       -7.06648252134447
H           46.43876739688836       -5.71939145260918       -5.33818344758156
H           45.93418384490290       -3.46172634014596       -3.05917336119244
H           44.02739960106751       -2.03654806342984       -1.77180682398222
Fe          88.77138586970382       -0.20037546624827       -0.11314581805922
C           92.16892576010153       -0.25926155093597       -0.16217359658997
C           91.50000344366521       -1.41597852991438       -0.50484765169049
C           92.15462077499164       -2.63059872285364       -0.88796430328609
C           91.18137160067526       -3.55644286555124       -1.06306879789883
C           89.93826106920423       -2.90312610625413       -0.78392145461664
N           90.13962118149774       -1.59215693753079       -0.46750745197092
C           88.70562233578342       -3.56105969885976       -0.77364115467367
C           88.67516104175864       -4.94348313291851       -1.05716522873702
C           88.64285768853262       -6.13039434310553       -1.30791489209540
C           88.59815923135869       -7.51287765007114       -1.60011103066785
C           87.39425475277146       -8.22523640316118       -1.54696358374610
C           87.40169840100690       -9.57663054686430       -1.84300447655539
N           88.50415718363899      -10.24120911978791       -2.17981711120893
C           89.65243178380530       -9.57106972533513       -2.23329504573884
C           89.75307505757817       -8.21949478570535       -1.95513947211924
C           87.50201856138912       -2.91274698969078       -0.49610924572504
C           86.23769559887431       -3.57938511937875       -0.45832157731887
C           85.30030462238533       -2.62201059421329       -0.25252946376680
N           87.34592159818195       -1.56807854158830       -0.29163736235614
C           85.99887878764612       -1.37749514851679       -0.16877926736194
C           85.35469987044215       -0.13890857157849       -0.07550404180561
C           86.04384179407472        1.07488370747066        0.00854900020746
C           85.39207380424486        2.34303733121712        0.11087511932416
C           86.36724916437969        3.26522963169129        0.30205466339848
C           87.60759641594720        2.55367797583282        0.31080217426159
N           87.39928827989451        1.21653028705180        0.10462306128843
C           88.84021206211514        3.15723137320544        0.56130559446923
C           88.86870818429951        4.53786743767273        0.85346618767330
C           88.89280837578939        5.72275399938854        1.11454927461543
C           88.91886734149172        7.10181852116867        1.42456904676928
C           87.74450823663273        7.86335745708772        1.44174947465833
C           87.82316666712687        9.20912347382355        1.75287924204416
N           88.96799575250758        9.82360258081511        2.03962617759299
C           90.08893171092802        9.10675474702863        2.02487806869292
C           90.11899374738690        7.75615884152452        1.72635625416614
C           90.04910478432458        2.45682429704071        0.53367640798464
C           91.32175786984838        3.06596651477239        0.77784778358506
C           92.25715742449206        2.10866361366997        0.56910230851664
C           91.55027001914767        0.91879323702957        0.20165628240340
N           90.19616294936714        1.14131627106524        0.20625413854530
H           93.25293164601290       -0.27765566329975       -0.17858024235405
H           93.22169326010062       -2.74186322121229       -0.99725435877116
H           91.27770127478328       -4.59224395362531       -1.34686092053715
H           86.47318329996801       -7.72270207954228       -1.27739247782316
H           86.48236797450718      -10.15414926054355       -1.80900498624816
H           90.53208037530513      -10.14418407333556       -2.51183704143600
H           90.70880939667522       -7.71259098085279       -2.01109980331541
H           86.10047709726470       -4.64168504480880       -0.58104851533396
H           84.23094474751795       -2.73233724749087       -0.17197456946018
H           84.32563955589841        2.49032176484343        0.05238044481802
H           86.27116489293600        4.33124911082995        0.43165755895958
H           86.79075001488718        7.40261160204521        1.21458800611089
H           86.92786863493362        9.82379779486177        1.77424042548863
H           91.00472600837976        9.63975029780546        2.26380187901507
H           91.05462364752165        7.21012355816730        1.72599162723706
H           91.46223418891186        4.09634755029919        1.06291727674674
H           93.33021363297649        2.18303883051082        0.64650786291607
C           54.58160533175356       -0.12979656632446       -0.09799252882038
C           53.36012108509722       -0.09960911018037       -0.07938274873309
C           55.93004678828331       -0.19170432361873       -0.12731784395720
C           57.14866456791854       -0.26989370290403       -0.17800490071448
C           67.97950980679070       -0.33333496684993       -0.18465315409216
C           66.75578472186957       -0.36726583168328       -0.21132385916348
C           69.32461237318240       -0.32570427568352       -0.18539365602788
C           70.54855395568138       -0.35383172191513       -0.20785352305348
C           81.38037809152979       -0.17809479738452       -0.11181729865741
C           80.15985690410380       -0.24187930960356       -0.15627645080842
C           82.72803071984903       -0.13624177615264       -0.08490077772753
C           83.95076934305641       -0.12182330203246       -0.07196432878566
Fe          61.95031475444573       -0.62043037133900       -0.39344956559322
C           58.54713656818329       -0.38642999323827       -0.24840505865653
C           59.19777451794632        0.07206093053175       -1.39968020516883
C           58.51331759598777        0.59687606498070       -2.53908833149519
C           59.46764063409899        0.94539848984317       -3.43773617117450
C           60.72751864201594        0.65423832051178       -2.82846712520084
N           60.54935081495893        0.09472567812307       -1.59334299662651
C           61.95615629477422        1.02233930684308       -3.38295422883246
C           61.96303409997866        1.65696216243510       -4.64351305444713
C           61.97549297375465        2.20121290165078       -5.72814768291357
C           61.99170957679389        2.84039865802257       -6.98908552881281
C           63.19508469905809        3.23350420855746       -7.58639962833330
C           63.15740612340324        3.85793284487389       -8.82048030759718
N           62.02601347043735        4.10693922417665       -9.47480918082643
C           60.87791209984607        3.73659471004017       -8.91362813487520
C           60.80622263373099        3.10577936420421       -7.68425903749890
C           63.17356738686794        0.84810008564135       -2.72200589053479
C           64.41876390261207        1.35669373596012       -3.20553404527715
C           65.36336789361677        0.99055765438405       -2.30366071326367
N           63.35028297863062        0.18026048720166       -1.54114211394730
C           64.69042557407623        0.23922564361949       -1.29092669796965
C           65.35977767077925       -0.44642493839878       -0.26819727298272
C           64.69996455487072       -1.28813413165531        0.63837341297111
C           65.38066564957047       -2.12647329996975        1.57455229921126
C           64.42344824946512       -2.81429800154092        2.24554649971904
C           63.16551135048527       -2.36622069709741        1.73494114740981
N           63.34972295130186       -1.44907986043570        0.73510166090909
C           61.93599622988035       -2.72907410937251        2.28584626909928
C           61.92066159312743       -3.67618628398283        3.33170520035401
C           61.90899475643857       -4.51336133360831        4.21027052035978
C           61.90253351849184       -5.49303526049226        5.22950597453661
C           60.70662033029335       -5.93289569133003        5.80848477500496
C           60.75737841956871       -6.90073312447701        6.79603547643088
N           61.89452365998667       -7.43938144106336        7.22839615864193
C           63.03582577230733       -7.02586463857751        6.68370542611438
C           63.09439706437411       -6.06458908370292        5.69040451788009
C           60.72419639741917       -2.15786703520345        1.88520347852168
C           59.48518464430411       -2.36999900436998        2.56498315846023
C           58.54822975626924       -1.65373405341091        1.89496315006700
C           59.21744588576797       -1.03759633623772        0.79219697128491
N           60.55338836445171       -1.32667860596655        0.81476750576545
H           57.44193902906265        0.67675273906008       -2.62830351519516
H           59.34493843815993        1.37820952701140       -4.41749155199533
H           64.13887871063234        3.05004662675957       -7.08728269615172
H           64.07542722429814        4.17360644215253       -9.30764106079839
H           59.97437748303341        3.95550846592045       -9.47521658981523
H           59.84972528676489        2.82102081424283       -7.26299427070847
H           64.53889201450758        1.92478323670914       -4.11392839101799
H           66.42304918222978        1.18818417979721       -2.31943861890469
H           66.45164793963507       -2.17935379675320        1.68602555613023
H           64.54281188659604       -3.54351290507571        3.03061156935543
H           59.75831010615556       -5.52119977522252        5.48501842381025
H           59.84531058537568       -7.26193807698435        7.26222723749785
H           63.94446663573402       -7.48656820270540        7.06035074601655
H           64.04544498983749       -5.75688037612296        5.27284514257457
H           59.36478645800997       -2.98085006846481        3.44515385806857
H           57.49444067402202       -1.56101116347711        2.10257356968666
Fe          75.35703729104003       -0.55227648958583       -0.38964579607149
C           71.94533378089643       -0.41664734828137       -0.26337800547255
C           72.59959006950731        0.19773831663287       -1.34067320586985
C           71.91336818197321        0.82775206645273       -2.42438204091236
C           72.86744608369909        1.28217993838331       -3.27471026055444
C           74.12812854381849        0.95167972841945       -2.68732503585337
N           73.94981479309543        0.26507658081681       -1.51623394670160
C           75.35248790546453        1.39833582037580       -3.18641267470325
C           75.36026304249803        2.12952430468726       -4.39319793623280
C           75.36564469367374        2.73268056974563       -5.44629481359349
C           75.36519589274559        3.42914047306253       -6.67655021072425
C           76.55088248518636        3.91922511951750       -7.23593301947642
C           76.49369349293563        4.58751137916937       -8.44616435660660
N           75.35965483507928        4.79038276067845       -9.11173503715416
C           74.22810580757499        4.32813761553274       -8.58628920840740
C           74.17650767746071        3.64753223371025       -7.38284637088977
C           76.56525483593036        1.19765819793272       -2.52064890182433
C           77.79799232161670        1.80082882483960       -2.91869836509318
C           78.74163668268956        1.36461633385631       -2.04724770881442
N           76.74568601373562        0.40695925369743       -1.42100162155695
C           78.08191118342287        0.47490093284993       -1.14370267076275
C           78.76221223057802       -0.33969378444698       -0.23123925149804
C           78.11761291220652       -1.31047965278150        0.54579470198820
C           78.80891607859525       -2.24655024285690        1.37509314085982
C           77.85905923528895       -2.99703464497254        1.98719454738811
C           76.59564539737084       -2.49671181476466        1.54388345788503
N           76.76707349931711       -1.48392074857061        0.64034933126938
C           75.37186415745987       -2.91028703897840        2.07574914283855
C           75.37152031286746       -3.92190060872686        3.05980441571969
C           75.36219752685510       -4.79518872761387        3.90249231666038
C           75.34827279647693       -5.81025062666393        4.88649237814874
C           74.15223548404069       -6.21839430600164        5.48844869580202
C           74.19113421748801       -7.21610314955813        6.44624116120641
N           75.31696801997909       -7.81346861617030        6.82810351577860
C           76.45806928751036       -7.43110700122150        6.26076317740432
C           76.52803480897718       -6.44340859951786        5.29431141830407
C           74.15104973550554       -2.33263437861095        1.72028971622991
C           72.91054502347114       -2.64284820455413        2.35875242759004
C           71.95852485460323       -1.90498373426113        1.73489117714579
C           72.62291902165643       -1.16950880263281        0.70518915618092
N           73.96515045991325       -1.41544944487468        0.72263379863831
H           70.84140041010549        0.89824120967636       -2.51451005612905
H           72.74374576507529        1.81227951125234       -4.20529936508889
H           77.49631509306276        3.77492076164061       -6.72725299764351
H           77.39774071829632        4.97789089548551       -8.90438743269466
H           73.32177458981533        4.51128079413938       -9.15614778016053
H           73.23337170525070        3.28681827569094       -6.99054560791013
H           77.91058919063667        2.47476750589085       -3.75264020664708
H           79.79399871332015        1.59701587103915       -2.02090284060431
H           79.88123052356798       -2.31219668333250        1.46478329362498
H           77.98726141934924       -3.80431729844359        2.69016567765372
H           73.21312542953638       -5.75785798389289        5.20648119560721
H           73.27880752140975       -7.55272143030725        6.93005312393325
H           77.35717495257988       -7.93966663491555        6.59638885107637
H           77.47870171797194       -6.16214957167593        4.85779086142839
H           72.79792933947729       -3.33226061399563        3.17994741550224
H           70.89916310504350       -1.86637501513279        1.93109246485818
