248
 energy: -448.980725095293 gnorm: 0.000958953090 xtb: 6.5.1 (b24c23e)
Fe          46.86054797870266        0.03597678545877        0.03247260131195
C           43.47486164264201        0.05079119522973        0.14721915981837
C           44.12697890764987        1.26577467874208        0.19554959992388
C           43.45415273001436        2.52808867185370        0.25805033248026
C           44.41396189695035        3.47294560960769        0.39595983836432
C           45.67169024827047        2.78382895964848        0.43299807683962
N           45.48460334184945        1.43877601310170        0.26522055144549
C           46.89405695884867        3.40414098488713        0.67043638747225
C           46.91083772952928        4.86001649806388        0.94252711248950
C           46.24128710205135        5.38246375033812        2.05140826517264
C           46.26171059889000        6.74116527586015        2.31019717612997
C           46.95000050070084        7.60724931672553        1.45530912630047
C           46.97014984505393        9.00653905909227        1.71678692154621
N           46.98615827464963       10.13728886792682        1.92959322379963
C           47.61862261315960        7.08937848600795        0.34210307610597
C           47.60029047111916        5.72879853589076        0.09352477478039
C           48.09970990008458        2.71672303547088        0.67120514759276
C           49.36388186318909        3.31490682164535        0.98303120455434
C           50.30572555216138        2.36003563568641        0.79169861533905
N           48.26840940704286        1.39447523021770        0.33607170797526
C           49.61428671957934        1.18207548611308        0.37031493979111
C           50.26792421888521        0.01069760666522       -0.03259805863271
C           49.58243374375554       -1.14559365640275       -0.42593567596577
C           50.23932076062606       -2.32511891895366       -0.89511455925314
C           49.27500372883544       -3.25867538683212       -1.07978013368933
C           48.03269446466102       -2.64844486368931       -0.70844381592113
N           48.23497289433249       -1.33631655865654       -0.35202587618979
C           46.81968833074131       -3.32106424487706       -0.66133708486806
C           46.80039808381626       -4.77104276649605       -0.96229707934296
C           46.05378244130869       -5.26242598669422       -2.03559628572150
C           46.03617019845060       -6.61610793534228       -2.31993337733196
C           46.76356043345010       -7.50847678973115       -1.52676224669735
C           46.74434542414658       -8.90286825277246       -1.81305296954347
N           46.72895228677906      -10.02959897596895       -2.04640752603355
C           47.50953292756325       -7.02189949986381       -0.44919529431529
C           47.52814932227638       -5.66626196474472       -0.17481658303307
C           45.62111099949681       -2.69355927399511       -0.33601581543436
C           44.36308179579544       -3.37339560522882       -0.22060737714226
C           43.42512684542856       -2.42449796449698        0.00919499012026
C           44.11183831139508       -1.16852682147839        0.04299755709292
N           45.45910765269304       -1.35074067921912       -0.13072731010368
H           42.39149802441727        0.05494933957426        0.18799568753098
H           42.38477668313146        2.65476500853321        0.20110672664003
H           44.29412097113092        4.54193249082071        0.46500378381165
H           45.71637783936981        4.71248795077167        2.72285743733823
H           45.74614120932947        7.13901558040352        3.17643710182432
H           48.15032015369396        7.75819469175786       -0.32447768156078
H           48.11135402650541        5.33133629441975       -0.77610386057218
H           49.50210499353712        4.33199112351707        1.31161499103652
H           51.37392572462678        2.43272176163555        0.91779414953035
H           51.30131391946172       -2.41198998460326       -1.05864954047263
H           49.38464095692337       -4.26897903306186       -1.43880422085265
H           45.49765647654804       -4.57207552114944       -2.65966837938307
H           45.45968958768040       -6.98950447340172       -3.15814289370921
H           48.07144186640366       -7.71123639169990        0.17007585048487
H           48.09849791883951       -5.29356314886862        0.66844488669557
H           44.22841792603013       -4.43978638646797       -0.30165844447944
H           42.36192667151507       -2.54422552418563        0.14383649678460
Fe          94.82818799379244        0.00345959217674        0.03222681597461
C           98.21766907267468       -0.00474005865534        0.14950196693091
C           97.56404515949144       -1.21224676127759        0.28245621073733
C           98.23748175956690       -2.46803569063540        0.42168010336692
C           97.27786775165227       -3.40416925626915        0.60953904525406
C           96.01929301756651       -2.71559762730812        0.59975734132243
N           96.20646054063005       -1.38035828055127        0.36364407974691
C           94.79603124533467       -3.32738489553005        0.84941127676055
C           94.78060016826177       -4.77018060913715        1.18594788794168
C           95.42714117739206       -5.23718595124113        2.33244102080508
C           95.40988176264489       -6.58308271784395        2.65148771616114
C           94.74789730566897       -7.49184278486198        1.82056342959657
C           94.73014267217273       -8.87783774095312        2.14492868069905
N           94.71603547742563       -9.99792938158580        2.40819884266896
C           94.10275118651845       -7.02967228466087        0.66964974984923
C           94.11799698559935       -5.68143774399768        0.36054463547159
C           93.58816551073249       -2.64520747317346        0.80207809582836
C           92.32246363537199       -3.23988360433199        1.11424336980801
C           91.37935132916557       -2.29585934346244        0.88172180925064
N           93.41944560564015       -1.33437870013457        0.42521845701835
C           92.07101836599082       -1.12687074013412        0.43614691320473
C           91.41684054910324        0.03726614407233        0.01938486623777
C           92.09880587907723        1.18576973482808       -0.39680980372380
C           91.43681295334454        2.35438704684904       -0.88554899742399
C           92.40125409427267        3.27453775366912       -1.12657009816760
C           93.64937785579492        2.66868857229073       -0.76857995967586
N           93.44919273322304        1.37331835991857       -0.35473386648728
C           94.86865594794168        3.33123715013450       -0.79597418946153
C           94.89096749138153        4.76179075389558       -1.18017162641884
C           95.59776498268478        5.17856158917752       -2.31052317254389
C           95.61959839979683        6.51268808114176       -2.67528977677595
C           94.93635349209710        7.46032511049287       -1.90742431288275
C           94.95902671144204        8.83476261954178       -2.27762716619175
N           94.97567769613356        9.94630526428535       -2.57477860612053
C           94.23046336437082        7.04856011673300       -0.77304961945742
C           94.20753466266135        5.71177909040600       -0.41787495050489
C           96.07196566886877        2.71230342646868       -0.47547277418461
C           97.33589202014437        3.38990966369939       -0.43425833022547
C           98.27387015735444        2.45255370965540       -0.16258452105540
C           97.58206340035088        1.20583892081461       -0.03150680204739
N           96.23184731367000        1.38409780530564       -0.18684807343083
H           99.30132619759898       -0.00869835980071        0.18077563738959
H           99.30716694238986       -2.59672424125170        0.37557608580868
H           97.39815512521342       -4.46736630068728        0.74012455588636
H           95.93213031836716       -4.53377821180984        2.98470342405559
H           95.90788072374865       -6.93766985932076        3.54625597084969
H           93.59186891564312       -7.73198240345016        0.02134522305522
H           93.62550079290872       -5.32726538362576       -0.53797520452745
H           92.18432326693657       -4.24746373607615        1.47107610562053
H           90.30999155988789       -2.36953502753748        0.99613860393148
H           90.37144678245005        2.44235444213707       -1.02554667571211
H           92.28791649876682        4.27276852192130       -1.51663204469466
H           96.11968693476864        4.44482305554134       -2.91436920103863
H           96.16495567407860        6.82791281979768       -3.55712660572601
H           93.70292847321357        7.78110768855353       -0.17347521016343
H           93.66869322173569        5.39752053955918        0.46879220598535
H           97.47380480580570        4.44778102508076       -0.58849394760147
H           99.34041618318173        2.57389527727624       -0.05944636040072
C           55.46478558715457       -0.01215243019485       -0.06538940679762
C           54.23407784178471       -0.01242708146996       -0.06204170139442
C           52.89364830287747       -0.00821703547304       -0.05524189103080
C           51.66766602355059       -0.00199810314185       -0.04790835170818
C           56.80496587843437       -0.01052632097075       -0.06545239734817
C           58.03122279487736       -0.00476225048633       -0.06221243925145
C           71.45040987448144        0.01457191750829        0.04626025853302
C           70.21933517061014        0.01369243673683        0.04191389850453
C           68.87944866409529        0.01241663100554        0.03352249306319
C           67.65299022377408        0.01391193152121        0.02298280830824
C           72.79032205395436        0.01789763871309        0.04297534941277
C           74.01677346655464        0.02064676730645        0.03951754685631
C           87.44627902979717        0.06365748505232       -0.00748778024640
C           86.21678491037028        0.06487393372836       -0.01156483610901
C           84.87409095374018        0.06386444095071       -0.01423768115725
C           83.64900714795884        0.06140849451724       -0.01477662607940
C           88.78921694267727        0.05984871183215        0.00136738016739
C           90.01388584243949        0.04958733787934        0.00863618215265
Fe          62.84243030670655        0.00890740512529       -0.03143099914298
C           59.42991200793730       -0.00045361103706       -0.05618446423048
C           60.10708089019361       -1.19815721460515       -0.32286650158840
C           59.44293412148873       -2.43925435872806       -0.56754973046314
C           60.40275849014274       -3.32874326128220       -0.92142951706819
C           61.64773488033541       -2.62136008452134       -0.89931140881911
N           61.45405701286599       -1.32701701702450       -0.48426793255726
C           62.85958826750833       -3.16208965028696       -1.31289154900274
C           62.86448801088131       -4.53280712843723       -1.87324860238363
C           62.13383414157193       -4.82682001801762       -3.02685479314217
C           62.13881510465325       -6.10461998112488       -3.55653678544471
C           62.87212120480287       -7.11858133830618       -2.93318846532608
C           62.87549395214902       -8.43579028400980       -3.47352284987436
N           62.87669237339375       -9.50068515425093       -3.90933986852821
C           63.60135923404740       -6.83008276657212       -1.77580897385941
C           63.59878083086823       -5.54809777417715       -1.25611545244914
C           64.06522584605185       -2.47730137044813       -1.22425756107004
C           65.31885023121554       -2.99313317035007       -1.68657651210546
C           66.26938561093721       -2.10378958711787       -1.30857050069508
N           64.24538627191453       -1.25744357850120       -0.61895604483963
C           65.59099737229863       -1.04511635628050       -0.62972102260340
C           66.25454552649067        0.01242316375960        0.00790202516219
C           65.57397932109758        1.06978504496266        0.62729606104514
C           66.23428476996565        2.13254963690650        1.31737911976904
C           65.27390728240036        3.02326258672235        1.66620345789512
C           64.03254029297307        2.50350180493024        1.17604146136028
N           64.22868022937229        1.28042238732329        0.58249765538671
C           62.82386145604015        3.18665236372077        1.23284163959223
C           62.81475682381481        4.56212632158500        1.78105266852592
C           62.05467771906167        4.86774915792214        2.91241587074730
C           62.04594667194575        6.15093895949910        3.42903106113738
C           62.79560455723117        7.15861372444113        2.81503558602578
C           62.78522259633051        8.48175338183329        3.34056817613869
N           62.77845037015292        9.55024939554914        3.76744442328962
C           63.55518114332678        6.85826769356392        1.68048602754084
C           63.56554634709021        5.57124555845435        1.17364185088461
C           61.62193591764341        2.63858825947885        0.80029437164227
C           60.37326564726833        3.33980840271943        0.79738493359564
C           59.42294055071790        2.44175138821329        0.43942636222739
C           60.09689764743620        1.20225606752035        0.21439019192694
N           61.44079332901169        1.33981890701920        0.39293425921344
H           58.37986331695348       -2.59467923516717       -0.47908426317090
H           60.28727216197851       -4.37068582623744       -1.17156338330596
H           61.57308073584466       -4.03998354301186       -3.51848838128777
H           61.57536517697589       -6.32415433278192       -4.45585775891345
H           64.16742787660871       -7.61483830006512       -1.28785091730510
H           64.15659941457351       -5.32989422509121       -0.35245238685550
H           65.44578890658074       -3.91430090109909       -2.23143962781919
H           67.33469608590508       -2.14818552309575       -1.46747207627616
H           67.29531076914306        2.17868470047768        1.50249882786730
H           65.38653394242321        3.94739460614190        2.20918089987102
H           61.48124991593934        4.08596341583373        3.39744603702648
H           61.45909340514542        6.37946021719271        4.31091164124420
H           64.13447470656322        7.63792478169553        1.20003988493646
H           64.14659158827816        5.34416723754072        0.28700221351163
H           60.24874843745882        4.38352808358013        1.03532015431544
H           58.36040123122122        2.59068548664724        0.33488571473933
Fe          78.83131955891312        0.04743771107446       -0.00372761160796
C           75.41557001075158        0.02783704376262        0.02865444645747
C           76.09086543124558       -1.15942585011639       -0.28434413111917
C           75.42205176948761       -2.39320167502061       -0.55407085973085
C           76.37833676576217       -3.27867375244950       -0.92529134397938
C           77.62638024106602       -2.57655785018551       -0.88882129596325
N           77.43680391817314       -1.28768561913775       -0.45262018694793
C           78.83674465014613       -3.12171471686989       -1.29668672178096
C           78.83798024515505       -4.49140097689506       -1.86062634271007
C           78.12214042247642       -4.77615064648745       -3.02564112812326
C           78.12209024239601       -6.05323271654753       -3.55718487496521
C           78.83559524389730       -7.07557357668279       -2.92451063901140
C           78.83371768746595       -8.39187018025247       -3.46704736674043
N           78.83337645900578       -9.45679523610263       -3.90258594953929
C           79.55076368157434       -6.79598126572221       -1.75623412874819
C           79.55289473163576       -5.51486011801109       -1.23437041765255
C           80.04676121491259       -2.44469138633621       -1.19853337083097
C           81.29837080262844       -2.97222425886454       -1.65267669505204
C           82.25255941659439       -2.08317066374426       -1.28416761597832
N           80.23095554816233       -1.22099442324746       -0.60420699891900
C           81.57863288663829       -1.01283323746161       -0.61937524448615
C           82.24716837718118        0.05833258482633       -0.01430836389514
C           81.57508412320598        1.12768373277525        0.58948025198866
C           82.24634210084331        2.20707806282327        1.24211190761472
C           81.28932364452480        3.09534491255670        1.60514512922975
C           80.03847328363838        2.55700457276873        1.16162805999369
N           80.22633666223138        1.32913853409774        0.57730246355401
C           78.82462227282117        3.22680816373544        1.26396626264074
C           78.82338633509931        4.60414174966966        1.80886995813476
C           78.11864046815420        4.90266947999896        2.97718471918336
C           78.11706847851215        6.18770235978424        3.48918296039502
C           78.81820433298761        7.20411815943088        2.83365038417560
C           78.81429370956856        8.52880803427522        3.35534804074065
N           78.81079562566804        9.59959984283553        3.77658814875002
C           79.52269038445962        6.91064155251388        1.66238707227565
C           79.52634962727070        5.62180365937552        1.16000579478719
C           77.61347694436797        2.66593251226691        0.88075673790749
C           76.35830174203285        3.35412855830882        0.93448123830590
C           75.40492482697668        2.45278281598089        0.59536708942308
C           76.08270868996665        1.22432546368150        0.32400326757204
N           77.43015785487378        1.37016451991142        0.46236646442462
H           74.35853409180315       -2.54671864877647       -0.46749182697831
H           76.25932905470400       -4.31519114247818       -1.19543283534953
H           77.57610358378057       -3.98312908034439       -3.52389657101964
H           77.56995431867941       -6.26575383921753       -4.46512369585676
H           80.10212958116884       -7.58692518638376       -1.26153214599988
H           80.09901765150327       -5.30370263920658       -0.32195485733432
H           81.42164448274190       -3.90008631990973       -2.18678152493820
H           83.31771955769545       -2.13372260482825       -1.44218559690585
H           83.31187453878070        2.26426606842347        1.39534882381198
H           81.41004284517429        4.02877518435966        2.13023497703691
H           77.58279711278281        4.11433453463938        3.49359988229857
H           77.57340421155942        6.41106622923771        4.39957343233986
H           80.06453477751141        7.69687958159173        1.15001591032960
H           80.06452752811597        5.39960721440685        0.24554497301048
H           76.23246512671223        4.39248272702011        1.19421016031911
H           74.33804777337697        2.59280714844111        0.52998009464044
