200
 energy: -368.800812420752 gnorm: 0.000636460788 xtb: 6.5.1 (b24c23e)
C           29.72093752782546       -0.09968465516635        0.09410691112179
C           30.33813818927009       -1.33131335548413       -0.08215751715073
C           29.69573949126958       -2.59481176385161       -0.21117942902519
C           30.66309110594446       -3.54272105356950       -0.39157190843065
C           31.92780225489853       -2.88743060961255       -0.38575531570505
N           31.68152578000158       -1.55918608435283       -0.18539294411781
C           33.19372606810812       -3.46752297856708       -0.52669625664550
C           34.40591334209417       -2.77614179922191       -0.45685453827528
C           35.70522197675255       -3.39384539645754       -0.65504684266794
C           36.62047875296666       -2.41438748600751       -0.50582441068888
N           34.55301358087484       -1.44443851904663       -0.21746375129187
C           35.87887719214815       -1.19861756311462       -0.23141784508227
C           36.50879582664439        0.04396025731824       -0.01910063398171
C           35.86659182321873        1.27815528380832        0.19201147610146
C           36.50415184466364        2.52651541564878        0.42030899300381
C           35.53176317224170        3.47677005960047        0.56366406429816
C           34.26897026292959        2.83731063997248        0.41969054393418
C           33.00303981109201        3.42609853172928        0.50996390880572
C           32.96439847742329        4.89246719475114        0.71776539726108
C           33.53461402134494        5.75557082835019       -0.22226262556455
C           33.49710360040876        7.12378076088777       -0.02737356974177
C           32.89420923698794        7.65558683033773        1.11419272508522
C           32.88185062916740        9.12862970028744        1.27990068894254
O           32.27789344232438        9.53716615128003        2.40616148991761
O           33.36131576147096        9.90574245233988        0.49383616352119
C           32.32618338325748        6.79845266719299        2.05738593699428
C           32.35983951561707        5.42961437940464        1.85742397635038
C           31.78961554979822        2.73507957841544        0.42109366111284
C           30.48075406121561        3.36887721854250        0.46685479478563
C           29.57293131008615        2.37854681926948        0.35582231183999
C           30.32568442434570        1.14293695646531        0.22848508536406
N           31.65704265241632        1.39737347932240        0.26241177393252
N           34.52329127654148        1.50884326909031        0.20527573522738
C           33.23218412677668       -4.92867519908072       -0.77263613815014
C           32.62461887947780       -5.46814440925153       -1.90951106197429
C           32.66291333430894       -6.83060082681723       -2.14887262809647
C           33.30646261138511       -7.67910141644696       -1.24749161842750
C           33.37243832153232       -9.14518298980279       -1.45674795367531
O           32.77115162811038       -9.55397067543146       -2.58451581602126
O           33.90857103570215       -9.91688458951025       -0.70262949670143
C           33.91116610233517       -7.14516149694003       -0.10781854757493
C           33.87646048501092       -5.78298009406406        0.12635051106928
H           28.63611711242426       -0.11951185204482        0.12154242219383
H           28.62908185158165       -2.74593923996388       -0.16516949003166
H           30.52000939951152       -4.60465053774401       -0.50904992484788
H           32.40101419365762       -0.84680222459549       -0.12158953921675
H           35.87255666797913       -4.43253758796323       -0.88928764196725
H           37.69408384214501       -2.47960152969926       -0.58036701437034
H           37.57157373811144        2.66818244849002        0.47211180960035
H           35.67334155211717        4.52638927547051        0.76300320924584
H           33.99092221594310        5.34585931985798       -1.11630187030698
H           33.93207027772426        7.79900307920265       -0.75611903339572
H           32.31203779130350       10.50698515564204        2.43934562077345
H           31.86125203563931        7.20659643499990        2.94701071440746
H           31.93075334728787        4.76346229517704        2.59734725339024
H           30.30572794825583        4.42879351114202        0.55737044549168
H           28.49643306472120        2.44688402530904        0.34650448609439
H           33.80540996299822        0.80200748293569        0.08416317773545
H           32.13686251339002       -4.80792919656008       -2.61792667302420
H           32.19568795582776       -7.23987501372500       -3.03678668421020
H           32.86013125339119      -10.51880492715270       -2.64784482320229
H           34.40549464479614       -7.81415517158519        0.58800315523668
H           34.33579493466423       -5.37191355069104        1.01804381136118
C           68.50704083480510        0.07222798092712        0.12018533696870
C           67.88016321976504        1.24755983853078        0.51323596484700
C           68.51231728626036        2.44023041845302        0.96459117293128
C           67.53723967873272        3.36130961760935        1.22473884236384
C           66.27787965384708        2.76346004729818        0.93223544010203
N           66.53492462042581        1.48728912820549        0.51942390078779
C           65.00736915973940        3.33751347717032        1.05443117649690
C           63.80134435223363        2.67921833126405        0.79971264431573
C           62.49816783834850        3.31544517435861        0.87599576930968
C           61.59040768845004        2.36359911757452        0.57705128726446
N           63.66436829149362        1.37518738665252        0.43537960246340
C           62.34049593737265        1.15223863735972        0.30664355407731
C           61.71963615036307       -0.06832634790623       -0.02615534006470
C           62.37136862484570       -1.26996654047139       -0.35962350271426
C           61.74448101506993       -2.50172492364671       -0.68620071333293
C           62.72437940624776       -3.40883913580557       -0.97981132878476
C           63.98116785102719       -2.75517143974445       -0.84742532918121
C           65.25162618992468       -3.30842136268354       -1.04135483917705
C           65.30152141888473       -4.71488871269833       -1.50391744142805
C           64.71693658628321       -5.07979794301988       -2.72008114469183
C           64.76666422278684       -6.39171849537938       -3.15330448405523
C           65.39653560004197       -7.36583033992432       -2.37620916578938
C           65.42283393556603       -8.75874987250089       -2.88264011208797
O           66.05147533863912       -9.61593445246880       -2.06403402887681
O           64.93296572253932       -9.11307971039124       -3.92493194153574
C           65.97825617222190       -7.00795774436410       -1.15945747175681
C           65.93216662665124       -5.69313714538114       -0.73050007543096
C           66.45968639818342       -2.63441214974529       -0.83117607884231
C           67.77283238284087       -3.20783576236394       -1.08387494322346
C           68.67320277055964       -2.26123830027018       -0.75145452721395
C           67.91148641015147       -1.10588636737960       -0.31036635957438
N           66.58223305765287       -1.36330590247730       -0.38213330278418
N           63.71616083194592       -1.46862467329216       -0.46045934207176
C           64.95446329706816        4.75411258181397        1.48674684671652
C           65.56510859656997        5.75044262874287        0.72060725214632
C           65.51146846616948        7.07531719852204        1.11684780174433
C           64.84915999985067        7.42496140617388        2.29400442241197
C           64.76452416982193        8.82889827975129        2.76234576829691
O           65.37096901452145        9.70444323103075        1.94623043809214
O           64.21130559549320        9.17639029814776        3.77461390476138
C           64.24163005043090        6.43226933544285        3.06541600865434
C           64.29160094302935        5.11008697151511        2.66459452165603
H           69.59185175754324        0.08754799880427        0.15043704673746
H           69.57776458723656        2.56280371247661        1.07644231236572
H           67.67171302322093        4.36452075010706        1.59545514357751
H           65.82121844244995        0.81599661364111        0.25636504648247
H           62.32358603201859        4.35245275139128        1.11242433567564
H           60.51684506185356        2.44967571093063        0.52751719657253
H           60.67870040906565       -2.66384415465145       -0.68955522214970
H           62.59193986779098       -4.44278739630905       -1.25354551044836
H           64.23997551157693       -4.32265773815667       -3.33216822768912
H           64.32109347506756       -6.67975687251564       -4.09917421733951
H           66.02484189801180      -10.49997003380980       -2.46483895207978
H           66.46392883513536       -7.76158383481102       -0.55089304370227
H           66.37217304236484       -5.41831310199501        0.22145321007709
H           67.95557126596735       -4.19566595925804       -1.47509321929997
H           69.74988083052213       -2.30650250013441       -0.79958791991003
H           64.42803743786556       -0.77029068079923       -0.27284046689893
H           66.06703984871585        5.48170717207199       -0.20214464572442
H           65.98095292449663        7.84274429441618        0.51284776234773
H           65.26934731177055       10.59469760242593        2.32029977086319
H           63.73254583918180        6.71463405645103        3.98040736024567
H           63.82952142700935        4.33942185949334        3.27095215776748
C           41.71153072684854        0.09647047098381        0.00712179957503
C           40.48355245201551        0.09365508128925       -0.00432784644145
C           39.13876474166738        0.08326788157595       -0.01344097812726
C           37.91530169238672        0.06707727310285       -0.01979650868107
C           43.05620251798486        0.09651272838190        0.02035647701037
C           44.27986582282825        0.09139890795939        0.03566934126025
C           57.74484001777327       -0.12109521564285       -0.02085340154696
C           56.51691051279310       -0.11333764523793       -0.01022876083946
C           55.17230219680665       -0.09658741498366        0.00446744049797
C           53.94894474126240       -0.06960998948980        0.01927966523204
C           59.08973408090819       -0.11477291525534       -0.02862432507194
C           60.31322701813686       -0.09847453435116       -0.03206456606921
C           45.68558925361178        0.08285513302817        0.04917384374031
C           46.32499295267844        1.02090002887432       -0.78294354590746
C           45.68917495046547        1.95376793018942       -1.64278233470613
C           46.66360752654966        2.68989826268365       -2.25881587603411
C           47.92392266371143        2.23152949132875       -1.78622947763493
N           47.66853532256989        1.21640328326247       -0.90421695939067
C           49.18988595500892        2.69833051287625       -2.15998463119081
C           50.40923657654016        2.18203757240452       -1.71707524234322
C           51.70250965681525        2.72936727803430       -2.08748833369743
C           52.63029302845956        1.96369401901802       -1.47719708476010
N           50.57223837889591        1.12163580595716       -0.88001950271683
C           51.90251504822203        0.95940658579709       -0.72660744079839
C           52.54360640821094       -0.03590315422525        0.03690175690933
C           51.90341227491864       -1.00369453784505        0.83374875836553
C           52.53740926125221       -2.01062034647124        1.60691393010768
C           51.56336899554883       -2.71600286463622        2.25882099571677
C           50.30544320445988       -2.15527460195297        1.90568982087691
C           49.04070535809516       -2.57434661508450        2.33619008623293
C           49.01489780824294       -3.67726514836736        3.32723011779197
C           48.39444901927704       -4.89184011122099        3.02338735320549
C           48.36998181442139       -5.91448777901063        3.95373026748487
C           48.96128440097733       -5.74063799869819        5.20653017962690
C           48.90331594430621       -6.86329882609466        6.17321838016724
O           49.50687981909182       -6.59703759734620        7.34146134304661
O           48.37176078796836       -7.92209679980174        5.95512310278470
C           49.58229679565530       -4.52993423975644        5.51471776634475
C           49.61039074610937       -3.50976930988514        4.58012575438136
C           47.82136194289198       -2.04004712760312        1.91580483779752
C           46.52979342745500       -2.47501919480804        2.41790989401608
C           45.60161572126815       -1.73931849617793        1.77253593868169
C           46.32776631996173       -0.84736320849263        0.88998421888666
N           47.65731704840545       -1.04326820030252        1.00376846733857
N           50.56115014559662       -1.13121919359395        1.03424123105157
C           49.21739655551033        3.83710357891874       -3.10933738474281
C           48.64284224649214        5.06234212359484       -2.76059484663100
C           48.67039404358655        6.12348229626872       -3.64655237921274
C           49.26827465070585        5.97816690086665       -4.89978957020481
C           49.27082006233459        7.14412783874988       -5.81559460773642
O           49.88606618619628        6.90761476654320       -6.98394606923664
O           48.77515089362929        8.21169600391659       -5.55860827896655
C           49.84041331657929        4.75598969294437       -5.25414282846114
C           49.81573724043633        3.69662541049386       -4.36408006142390
H           44.62237091291196        2.04042770605237       -1.77109115208451
H           46.52405584780236        3.47438469340279       -2.98443718905826
H           48.38170708301264        0.68396097608809       -0.41727900458859
H           51.85741384158787        3.59033590628431       -2.71719951876127
H           53.70423373542395        2.05425338612090       -1.50758866577182
H           53.60271963175958       -2.16955681003941        1.65085366013428
H           51.70108805899919       -3.55714635957758        2.91837666506437
H           47.94512097361393       -5.03257006662037        2.04698942165842
H           47.89372736717902       -6.86118276429002        3.72344344777918
H           49.42313773959285       -7.37564439520315        7.91555054358955
H           50.03953750138182       -4.38925260022350        6.48696403340446
H           50.08089663837726       -2.56404023458660        4.82470607879590
H           46.37622738688752       -3.23168942416364        3.16996433402400
H           44.52861829299362       -1.76953905536932        1.87354962993542
H           49.84922302655537       -0.55260387513013        0.60111463724684
H           48.19049654244589        5.18148931581383       -1.78256862321377
H           48.23171614335550        7.07880350628443       -3.38007716938333
H           49.84547094563746        7.71470133684717       -7.52222832366018
H           50.30151994273925        4.63757058176454       -6.22752012359210
H           50.24877570317245        2.74303166075060       -4.64413741871624
