132
 energy: -263.506300647805 gnorm: 0.000505489652 xtb: 6.5.1 (b24c23e)
Cu          13.42354402069301        0.04199077860350       -0.01479061415982
C           10.02336505846156        0.07821051244590       -0.19537164457420
C           10.65698943380222        1.30914600858448       -0.11536181937788
C            9.98002100119754        2.57300050445191       -0.05821240696442
C           10.93694253905432        3.53037152065203        0.02177826376572
C           12.20904045580184        2.86025388163030        0.00274373029158
N           12.00702766082290        1.51181063231555       -0.06874508517442
C           13.45318406196283        3.49311671137484        0.06589846377422
C           13.46750715253977        4.97759563623382        0.10625431786541
C           12.93336219293356        5.71373487576574       -0.95153513636804
C           12.95080014418813        7.10310347688901       -0.91344981731163
O           12.44054298529477        7.82799297019903       -1.93899288508400
C           13.49826769425571        7.76173211169833        0.18867876940252
O           13.49921929899178        9.13212360166687        0.19994372182518
C           14.02880543534103        7.02690265904283        1.24578897526464
O           14.54537754740247        7.74286571078692        2.29392020180738
C           14.01846939168337        5.63815732183966        1.20777831619136
C           14.68505330754610        2.83582352338956        0.09362969392291
C           15.96456042708318        3.48680809467772        0.09446510023181
C           16.90833688950183        2.51171631075174        0.12150812638418
N           14.87113774924192        1.47832968083928        0.10347341021578
C           16.21387576585084        1.25967108539089        0.12870927687653
C           16.84742186240996        0.00414545082740        0.14981743080969
C           16.18824167297920       -1.23741868276525        0.11832175483430
C           16.85610577382118       -2.50435784196385        0.11979392525312
C           15.89341946930682       -3.45848872236056        0.05408209109888
C           14.62879873983046       -2.77972910144895        0.01821883338455
N           14.84242359151719       -1.42668303896791        0.05569047973554
C           13.38711218830481       -3.40882829327178       -0.08343041365737
C           13.37153017954956       -4.89471721060444       -0.11075645144940
C           13.81183723638007       -5.61980466812698        0.99624503021067
C           13.79196643675920       -7.00955469551160        0.97183926067230
O           14.20822673233659       -7.72473945187604        2.04556977501983
C           13.33995944863250       -7.67849537928478       -0.16676938188471
O           13.33624173323425       -9.04909237721616       -0.16401698895760
C           12.90525991457893       -6.95388780010463       -1.27345636755737
O           12.48079010939876       -7.67975828359619       -2.35580361446862
C           12.91421623751461       -5.56463674616620       -1.24833022913790
C           12.15790082208334       -2.74978216795199       -0.16286503831122
C           10.87554423911314       -3.39641950114700       -0.23018926034439
C            9.93656263747400       -2.41844180073653       -0.26541371668653
C           10.63519957771165       -1.16633968075993       -0.21144982762258
N           11.98009205841928       -1.39623214665992       -0.15038494183189
H            8.93903126514640        0.08934584687299       -0.23737422362365
H            8.90856069685318        2.69692365190178       -0.07040047626715
H           10.80004182429314        4.59694496612611        0.09853210335403
H           12.52035731247586        5.21354476482056       -1.81798489468608
H           12.54628117091546        8.77036633505423       -1.72804053609061
H           13.91471511134824        9.42332472058446        1.02720238447083
H           14.89541216197960        7.15253957757084        2.97397016500489
H           14.42060757231460        5.07283330402337        2.04032621463408
H           16.11886546631921        4.55320293380230        0.06142651798425
H           17.98100919597045        2.62133143665050        0.12857026501169
H           17.92552564750143       -2.63630746955952        0.16017575704512
H           16.02404043950958       -4.52796828689417        0.02103613043612
H           14.15422030723414       -5.11064676416761        1.88789079494172
H           14.11885197841120       -8.66902699561108        1.83564024542529
H           12.99767695687122       -9.34807885508428       -1.02293845899582
H           12.20377973856679       -7.09555371679445       -3.07369832083375
H           12.58488376111075       -5.00679118307847       -2.11714903418119
H           10.72006462649696       -4.46337784428792       -0.23641917256213
H            8.86397798067268       -2.52167702409988       -0.31567276504621
Cu          32.01439493679344       -0.04297487691390       -0.02446842787657
C           35.41583944737278       -0.05667341844177       -0.18723351643313
C           34.78292272275581       -1.28853374121751       -0.25815634360589
C           35.46080482392760       -2.54980581791505       -0.35141959839517
C           34.50455679587553       -3.51051390125787       -0.38699964707472
C           33.23203757964224       -2.84373050900226       -0.32648395144104
N           33.43299294939074       -1.49608906409372       -0.23828663952388
C           31.98865040242190       -3.48079628727436       -0.33509404585406
C           31.97491913938882       -4.96068921152060       -0.46151553934384
C           32.49722323468946       -5.57325708292538       -1.60068217904606
C           32.47684511203714       -6.95812551349056       -1.71911697896916
O           32.97422300457858       -7.56345595863773       -2.82534112846660
C           31.93941796472830       -7.73609406326167       -0.69243456694560
O           31.93498519425616       -9.09906171498911       -0.83585774072927
C           31.42184236507272       -7.12461080769491        0.44648380587048
O           30.91500059990770       -7.95346262133546        1.41292809638305
C           31.43420963573443       -5.74038256915467        0.56455720226896
C           30.75597847777524       -2.83249982497294       -0.23371071582372
C           29.47746386390694       -3.48170079851004       -0.30423562100810
C           28.53220039662266       -2.51660329073679       -0.17287136140082
N           30.56786839115568       -1.48445593954723       -0.07632516464926
C           29.22480795643436       -1.27162443882626       -0.02984879855161
C           28.58924115924746       -0.02648661157592        0.12382608055789
C           29.24673014718937        1.21202210292895        0.22880651977335
C           28.57709042237880        2.47105413442268        0.36086395372817
C           29.53901404727925        3.42703722432432        0.40877316844307
C           30.80485683656996        2.75658195470830        0.31277568293807
N           30.59284023410260        1.40750490211243        0.19962519975611
C           32.04674142919887        3.39328420256413        0.29779392534695
C           32.06100939985212        4.87251837843220        0.44037750397368
C           31.60489797746575        5.46656779489759        1.61687491399007
C           31.62562440657946        6.84988643399663        1.75257340263554
O           31.19439481941870        7.43785054031694        2.89532502709776
C           32.09430441368574        7.64419646366204        0.70493906489542
O           32.09922507517944        9.00540837307405        0.86541311431564
C           32.54415695800946        7.05067879579627       -0.47156037290151
O           32.98435029030293        7.89514568740650       -1.45720206461400
C           32.53435391417511        5.66776351841873       -0.60628218936942
C           33.27780414084921        2.74766831921570        0.15884748940733
C           34.56001923267439        3.39769763172722        0.18150608288904
C           35.50050949161939        2.43061928193294        0.04144457279044
C           34.80286745181162        1.18084587685088       -0.05927485424186
N           33.45719358125439        1.40188411286429        0.01543926386238
H           36.50040909924931       -0.06244091576988       -0.22379312123158
H           36.53237653686563       -2.67050006029436       -0.37780496779667
H           34.64185641611170       -4.57854745918790       -0.43885636981526
H           32.90269472807233       -4.97903994061115       -2.40938327621688
H           32.86729493942901       -8.52341178551143       -2.72140624425890
H           31.52753471138742       -9.48110013574602       -0.04224055778022
H           30.57586296487578       -7.44309733571656        2.15991342473488
H           31.04109047840181       -5.27165885423209        1.45911265170425
H           29.32509047594212       -4.53863387107578       -0.45190720219367
H           27.45965649184714       -2.62766271029448       -0.17894109877729
H           27.50714581144455        2.59754659658750        0.40414155072980
H           29.40723701100579        4.49377486479868        0.49023781894212
H           31.24968800351511        4.85900501327024        2.43916177315023
H           31.28798201791675        8.39978301503396        2.79701140165778
H           32.44939964515436        9.40018242693365        0.05092639621640
H           33.26959225836305        7.39668411371377       -2.23414626194060
H           32.87583533572695        5.21271335540180       -1.52867132836564
H           34.71440334590160        4.45797914712211        0.30225990755387
H           36.57341626290139        2.53920690741785        0.01477011174688
C           18.25217039892209       -0.00890137701130        0.18740479669422
C           19.47646030595729       -0.00590269717057        0.20900615892339
C           20.81901902157234       -0.00936860422276        0.22472621178219
C           22.04953705948810       -0.00997373835010        0.23009563363734
C           23.38740732565930       -0.01070301472149        0.22630297132719
C           24.61788012293908       -0.01095405173351        0.21180581557886
C           25.96037051158685       -0.01440242710325        0.19034319358455
C           27.18445020765850       -0.01913399542314        0.16104298160372
