316
 energy: -480.202154687168 gnorm: 0.000675574434 xtb: 6.5.1 (b24c23e)
C           42.62739282041207       -0.13234211465884       -0.02395971714320
C           43.24709495734364       -1.37456866178269       -0.06899004500730
C           42.61708814536930       -2.64995924044419       -0.12436156389339
C           43.59689506838339       -3.60223588184356       -0.15432912993778
C           44.85666381361326       -2.93851692282361       -0.11782782060169
N           44.59498960434490       -1.59885678558391       -0.06729864643748
C           46.12248404550922       -3.52926850003340       -0.12966188177594
C           46.15338083366861       -5.02055306875814       -0.18955522353372
C           46.18597997727253       -5.66740447783227       -1.42827474557978
C           46.19939846595086       -4.85927399894027       -2.69845189667886
C           46.20757006533352       -7.05644784591161       -1.47357893693179
C           46.19800539101747       -7.80995959064968       -0.30436572044104
C           46.19942629920963       -9.31355629944853       -0.36655290954831
C           46.16613353627678       -7.15567274333806        0.92280101786533
C           46.14404102358513       -5.76758280681572        0.99178425812585
C           46.11271687742417       -5.06714818171170        2.32410762998260
C           47.33858701881402       -2.84908446762854       -0.09390248268149
C           48.62827467790532       -3.51591390593349       -0.10625227643907
C           49.56179738558302       -2.54234878561221       -0.06779759422967
N           47.50963495113754       -1.49877641256107       -0.04703823558074
C           48.84028081106126       -1.28441363866754       -0.03192274532931
C           49.48475932738077       -0.03042280992401        0.00418473459073
C           48.83921737189768        1.22002557531148        0.03974905619626
C           49.46314159439628        2.49552403744960        0.08297562341115
C           48.47939217394816        3.44488003287319        0.11865837126481
C           47.22368760767161        2.77617356146295        0.09709094631276
N           47.49334149717136        1.43369722508345        0.04872701572303
C           45.95905028925314        3.36658446764304        0.12103682852398
C           45.91928256533010        4.85736454240031        0.17936489483394
C           45.90482993173195        5.60214579226786       -1.00348986910433
C           45.93426898478143        4.89961059199487       -2.33473726951947
C           45.86248106147649        6.98977552362464       -0.93690520011678
C           45.83472912999541        7.64615525558524        0.28934432623953
C           45.76641303763979        9.14836293652357        0.34723181235349
C           45.84840788664586        6.89501008908652        1.45992526315209
C           45.89062611583269        5.50628920839700        1.41704830755872
C           45.90437407669313        4.70084554228154        2.68894763482488
C           44.74187627337784        2.68305591113575        0.09436300216171
C           43.44583427279307        3.34320676549702        0.11660964551174
C           42.51857083196192        2.36506473213737        0.07488863818955
C           43.24784332732113        1.10950687622288        0.02814506444712
N           44.58369900616151        1.33918995092859        0.04169959947719
H           41.54237263492157       -0.14234442630984       -0.03074857776369
H           41.54989915655577       -2.80429768266487       -0.13904512590945
H           43.47079880360592       -4.67214050415608       -0.19799744329984
H           45.30298637653146       -0.87327550561113       -0.03370820333476
H           45.30699030886270       -4.23336664209404       -2.75935113824375
H           46.23072805211947       -5.50873276775749       -3.57275214143929
H           47.07021772325942       -4.20141319250542       -2.71942593408111
H           46.23355298411822       -7.55821149113161       -2.43538021254838
H           45.17230451376965       -9.68511279473074       -0.39330511488345
H           46.71032072313719       -9.66500076794881       -1.26327692149097
H           46.69052800980764       -9.73828226789938        0.50928872187889
H           46.15978586884979       -7.73532788558702        1.84012012125672
H           45.21241668336896       -4.45558596765017        2.41004371277028
H           46.12534418117342       -5.78642084139288        3.14246283380860
H           46.97567086412101       -4.40633154234749        2.42491950776662
H           48.77026259504321       -4.58425042915051       -0.13988570967050
H           50.63587147216843       -2.63804778392734       -0.06349764369359
H           50.52947315278607        2.65460233998597        0.08713777285872
H           48.60210101863619        4.51525233910673        0.15692569732266
H           46.78797346008334        0.70487426167088        0.02470457470012
H           45.88278148976904        5.61597970230402       -3.15415356735345
H           46.85279593820484        4.31818684170808       -2.43611778499128
H           45.09213143909658        4.21017963907149       -2.41820513760006
H           45.85139974631111        7.56765815274496       -1.85529546626229
H           46.21494344300295        9.52312033746306        1.26752536258617
H           44.72380934339290        9.47384045788904        0.32019925934497
H           46.28202063213978        9.59366858819141       -0.50403167628586
H           45.82624495893025        7.39823780307315        2.42104780501712
H           45.85846619916731        5.35111899518970        3.56201676257708
H           45.05240782936868        4.01893363179258        2.71479388074277
H           46.81420741131796        4.10031757471633        2.74765730194136
H           43.29828019490767        4.41070018498393        0.15771520236220
H           41.44324383416316        2.45208349290960        0.07460980914706
C           97.73631973901986        0.10235037946154       -0.03980259200224
C           97.11643380191974        1.33764458736387       -0.17767937578778
C           97.74626646161802        2.60698237240016       -0.31419018139822
C           96.76628117632775        3.55327504852472       -0.42350304055938
C           95.50659874492197        2.89169814726698       -0.35751528759780
N           95.76846604946645        1.55939934469934       -0.20886874904993
C           94.24071509871558        3.47786194479780       -0.43191238167556
C           94.21034462631592        4.96134734265012       -0.59580329815316
C           94.21086501977673        5.52265367186093       -1.87589595607026
C           94.23251117749992        4.63019816450802       -3.08821598602657
C           94.18965707651886        6.90543044259604       -2.01584360646845
C           94.16736888768379        7.73645724334788       -0.90057954137373
C           94.16675369414723        9.23241610494788       -1.06425109245722
C           94.16677698000400        7.16690246269584        0.36854582152633
C           94.18771494869543        5.78678240163159        0.53204848258757
C           94.18419827057015        5.17841396532267        1.90918725357135
C           93.02452868658506        2.80019587636001       -0.36582160778180
C           91.73490158564852        3.46141367608856       -0.45353537684117
C           90.80130299760586        2.49278152754234       -0.34856139152069
N           92.85330361530406        1.45773527914453       -0.21227774520435
C           91.52273560685251        1.24356871535622       -0.19644738483382
C           90.87811255732879       -0.00201457260561       -0.04637071281645
C           91.52408806005636       -1.24352647801830        0.10730810097254
C           90.90039709499173       -2.51091699548213        0.25762888901901
C           91.88433571191472       -3.45464865131966        0.36555130739641
C           93.13985828696710       -2.79028672821091        0.28459618413218
N           92.86994884501541       -1.45585991424401        0.13022372237793
C           94.40452570603024       -3.37789810539441        0.34683412920947
C           94.44398477217418       -4.86076201240853        0.51093284742588
C           94.45658915762206       -5.68681668145768       -0.61674089095869
C           94.42564401571980       -5.07964176462581       -1.99407894815583
C           94.49844938139111       -7.06635011046280       -0.45290675029919
C           94.52737654917115       -7.63496178542569        0.81639509656879
C           94.59510938960007       -9.12943179782609        0.97949602643730
C           94.51538132906886       -6.80343498792819        1.93134245444712
C           94.47377939732480       -5.42111504570660        1.79108223465740
C           94.46156341395330       -4.52813992513206        3.00312869492187
C           95.62175393510604       -2.69858768576506        0.26785472071994
C           96.91774403447779       -3.35531747983813        0.33926104806172
C           97.84508942515070       -2.38225776804726        0.23191978488576
C           97.11590234422883       -1.13329930644353        0.09480057948567
N           95.78002096361701       -1.36185049386226        0.11988425844123
H           98.82135216351422        0.11297352680845       -0.03809057073669
H           98.81345025691807        2.76162467391952       -0.32564115126581
H           96.89225014316166        4.61772675019460       -0.54003082824910
H           95.06061753547894        0.83689933978598       -0.13271055792841
H           95.13115496909242        4.01023550993825       -3.08671709623838
H           94.21600526988090        5.21857949505300       -4.00512965084354
H           93.36777631662100        3.96407894088468       -3.08363953099721
H           94.18925824607417        7.34081083548294       -3.00980275302312
H           95.19397892293082        9.60396178196453       -1.08689823335634
H           93.68128543186677        9.52128900359110       -1.99672223735850
H           93.65071551486614        9.71397291537657       -0.23328736760312
H           94.14845572346050        7.80739239795044        1.24429920968803
H           95.07806746391027        4.56930779870549        2.05711056074229
H           94.15785258193419        5.95172949246659        2.67632868715108
H           93.31463923377346        4.53060130152191        2.03474133668048
H           91.59298482843826        4.52300108107133       -0.57817058509762
H           89.72722192456050        2.58664386856944       -0.36796935813885
H           89.83411763705718       -2.66896074434557        0.27851007371803
H           91.76179926135414       -4.51842282417740        0.49036052141705
H           93.57513991260322       -0.73166836988030        0.04328304025047
H           94.47308201301504       -5.85205410000061       -2.76114373371395
H           93.50847310235623       -4.50410936764523       -2.13396825521070
H           95.26944161162560       -4.40025951622422       -2.12793998034487
H           94.50816784746461       -7.70732208704080       -1.32845188523834
H           94.14625884609588       -9.43856954527640        1.92370493833193
H           95.63759317340832       -9.45639877424827        0.97556623908714
H           94.07947820674543       -9.63311983740487        0.16143711340134
H           94.53835678626081       -7.23793250751563        2.92541055005922
H           94.51011926977401       -5.11525714750032        3.91971902915709
H           95.31262205876379       -3.84502872014729        2.97901535968743
H           93.55099651442507       -3.92610995081605        3.02133322487875
H           97.06521706066280       -4.41723348297332        0.45584501429957
H           98.92041721849890       -2.46880032190939        0.24102995022765
C           54.68783094573364        0.00726645508777        0.00021498296297
C           53.45923280145173        0.00519343882064        0.00030334116679
C           52.11443256785488       -0.00249321379817        0.00060908274982
C           50.89033604377604       -0.01427239767748        0.00377448460571
C           56.03246809829592        0.00586038834735       -0.00477844837790
C           57.25675550072679        0.00328486329538       -0.01314211592651
C           70.79610367358941       -0.07024817121756       -0.06563711293193
C           69.56668324759595       -0.06527927780544       -0.06313064340543
C           68.22299643965903       -0.05930474986309       -0.06054649607332
C           66.99805802925565       -0.05345644250187       -0.05388695271753
C           72.13979007303455       -0.07517150568113       -0.06561457376099
C           73.36476447975697       -0.07786364281891       -0.06832452870452
C           86.90429977681940       -0.05367848344805       -0.05262587289781
C           85.67560623715218       -0.06501844532998       -0.05849470118655
C           84.33129179455509       -0.07655391622587       -0.06437646260455
C           83.10681969357128       -0.08353519187146       -0.06566155562581
C           88.24873804864329       -0.03778514756991       -0.04872541830282
C           89.47291915778980       -0.01955780776405       -0.04803595670832
C           58.66135161007412       -0.00498680546911       -0.01586892013354
C           59.29279741618200       -0.95268773688237        0.81268025329504
C           58.65920486986347       -1.90031128225375        1.65786455758055
C           59.63720277252298       -2.61789196157317        2.29133424378215
C           60.89658925991783       -2.12777287179400        1.84934392035351
N           60.63735684770188       -1.12306754853930        0.95610977330356
C           62.15660752894190       -2.58144079013070        2.25057137503570
C           62.16198038462125       -3.69302871020611        3.24763086367616
C           62.16051083616971       -5.02132532433763        2.81157558811168
C           62.16225808645443       -5.32892597007479        1.33784672121036
C           62.15610161685223       -6.04763582863664        3.74844982363250
C           62.15192477845955       -5.77113986246435        5.11217505407356
C           62.16309794762040       -6.89441402167338        6.11351284855454
C           62.15611632834093       -4.44619888299800        5.53435669402926
C           62.16044355558846       -3.40340729048503        4.61488187253718
C           62.16213195712002       -1.97176895891932        5.08070833183178
C           63.38650542449139       -2.09683543079672        1.81147889456405
C           64.66054981567460       -2.61715598285168        2.27445971200009
C           65.61673109471893       -1.91208105300009        1.63434671881978
N           63.58921068540123       -1.09535372363437        0.91056620522634
C           64.92451599920486       -0.96347096476960        0.78411294136261
C           65.59457305815171       -0.04468839860566       -0.05083904357107
C           64.96227240510282        0.89215608664199       -0.89211863665759
C           65.59541756670575        1.82876183593624       -1.74981614976638
C           64.61725069384818        2.54406215363505       -2.38578884132557
C           63.35807330907645        2.06412022070054       -1.93239186479655
N           63.61789480751630        1.06604438618815       -1.03135027732807
C           62.09813095306261        2.52320484587922       -2.32650873154581
C           62.08617885113317        3.62736236851422       -3.33165842795807
C           62.05972841377654        3.32632530933651       -4.69625729030681
C           62.04533291067460        1.89086064602556       -5.14988482828910
C           62.04305809206751        4.36135520738121       -5.62418388414241
C           62.05088949505742        5.68985370915803       -5.21313700344730
C           62.04917597506007        6.80400783132468       -6.22466443731324
C           62.07835103653141        5.97769766863994       -3.85211316362965
C           62.09544556047948        4.95917702489902       -2.90680649049263
C           62.11918272343365        5.27906282558162       -1.43587808084806
C           60.86831881792199        2.04906855624553       -1.87463711772486
C           59.59420970680459        2.57987633077528       -2.32598824452254
C           58.63821473633823        1.87879936018184       -1.68143367311692
C           59.33050366580315        0.92234932829471       -0.84027181353366
N           60.66624134146286        1.04785494003375       -0.97432088702169
H           57.59184565034682       -2.01057075749670        1.76196948353275
H           59.50601916475563       -3.41696233984391        3.00290082392879
H           61.34438716233291       -0.58097495195555        0.47088597899159
H           61.27256981562430       -4.91146119941207        0.86235993709016
H           63.03638721848092       -4.88394407509670        0.85894572666988
H           62.17816137014236       -6.40454357823874        1.16485457808507
H           62.15348607546706       -7.07871164229374        3.41025968922975
H           61.78021915236546       -6.56068056902768        7.07803516184182
H           61.55704853864767       -7.73066200110406        5.76335198315015
H           63.18446105160331       -7.25428446864225        6.25760446574104
H           62.15344847393013       -4.22050164496966        6.59573442070423
H           61.27101970277502       -1.45452818624230        4.71970850164955
H           62.18076306208954       -1.91652093169047        6.16871670217171
H           63.03474703549391       -1.44656327590374        4.68808028003861
H           64.77799030657994       -3.41401173848487        2.99125787077956
H           66.68839148490510       -2.00407027455580        1.71131385430760
H           66.66269466420829        1.93398205098773       -1.85987696462339
H           64.74791472729845        3.33565232398463       -3.10579375137538
H           62.91104573766197        0.53133180193419       -0.53774302887051
H           62.00769091669060        1.82659816875384       -6.23689891221634
H           61.17765840816272        1.37216366212554       -4.73802956123330
H           62.94060904786793        1.37338747332196       -4.79977753275507
H           62.02057097902320        4.12687991187986       -6.68341208116753
H           61.62780500878910        6.46892045071027       -7.17255382346052
H           63.07174033487455        7.14275755554447       -6.40675563883553
H           61.47115869930025        7.65475129284051       -5.86243565594561
H           62.08335026922079        7.01152837208431       -3.52249278284726
H           63.01606536924856        4.86414624712715       -0.97189864397398
H           62.10760651631054        6.35610590351763       -1.27161927208775
H           61.25251185072339        4.83948625537287       -0.93869725939873
H           59.47627749710331        3.37994065359860       -3.03907277248830
H           57.56663333044492        1.97764123370745       -1.75034468764111
C           74.76824922414809       -0.08203415961918       -0.06859807905417
C           75.40169590604636       -1.01803443291467        0.77277891565426
C           74.76958849912282       -1.96013272993791        1.62516285293140
C           75.74861035916371       -2.67385834956548        2.26163000120328
C           77.00726755510873       -2.18715335293484        1.81407663288749
N           76.74631370073497       -1.18680929015055        0.91588474004217
C           78.26779232946444       -2.64245350368719        2.21087495929224
C           78.28066532397116       -3.75383656222595        3.20803541131726
C           78.26910414410845       -5.08224794304225        2.77270864954544
C           78.24173765219945       -5.39051484723835        1.29935556142912
C           78.28455164448701       -6.10825844774606        3.70992237201947
C           78.31052457054575       -5.83120774829525        5.07317537800163
C           78.34892860116800       -6.95319546904122        6.07526037010337
C           78.32228703584906       -4.50597656370699        5.49467009701923
C           78.30730645520228       -3.46360836800874        4.57496839425487
C           78.32131731732260       -2.03178933618436        5.03995181976063
C           79.49728615558651       -2.15932360868187        1.76787450231162
C           80.77190735011064       -2.68532830472208        2.22326599627243
C           81.72742481530547       -1.97483271764486        1.58830977323713
N           79.69866952087106       -1.15151583324799        0.87460567548386
C           81.03429146424244       -1.01765797535787        0.74874490646811
C           81.70256578705725       -0.08328753567243       -0.06871108481345
C           81.06957745617282        0.86127122692711       -0.89998176943272
C           81.70194878201085        1.81282243529924       -1.74152977832909
C           80.72301941004677        2.52287067276330       -2.38210348438406
C           79.46433865440946        2.02410425052579       -1.94803841594399
N           79.72486048062062        1.02225771544555       -1.05194590802614
C           78.20384841065098        2.46864704052829       -2.35798481560403
C           78.19779102097843        3.57731687148636       -3.35826742060101
C           78.20139097133749        3.28283032782830       -4.72464752497087
C           78.20327125411033        1.84950311173928       -5.18521101690327
C           78.20244489881429        4.32223273603899       -5.64758616819270
C           78.19937080830860        5.64895504106220       -5.22998248610002
C           78.22310352445973        6.76634879778156       -6.23764800622565
C           78.19533350802263        5.93018465037091       -3.86754753603408
C           78.19418454008397        4.90695583746743       -2.92693630643788
C           78.18824363626388        5.21986876532694       -1.45433485133115
C           76.97438242012771        1.97789606674986       -1.92463128548236
C           75.69987669878691        2.49220639003981       -2.39301705987634
C           74.74430157826181        1.78340884969116       -1.75608482018808
C           75.43734160179406        0.83953282354469       -0.90128681947149
N           76.77253122696894        0.97691857939458       -1.02294150179745
H           73.70239626384723       -2.07004053041677        1.73142932787921
H           75.61877054589030       -3.46831330454720        2.97862551549761
H           77.45250905254750       -0.64754760014151        0.42630619330229
H           77.33826986597103       -4.98120692813786        0.84311348180135
H           79.10130196266438       -4.93799644718471        0.80152509460846
H           78.26332285371447       -6.46603883048763        1.12633704296304
H           78.27575929578518       -7.13942815542138        3.37213783894165
H           77.95776087668885       -6.62811823553696        7.03944111000302
H           77.76452485185760       -7.80492600179765        5.72590753692925
H           79.37918285480393       -7.28653247686611        6.22029425539815
H           78.34290273494682       -4.27997208408032        6.55577598893088
H           77.43063802906967       -1.50908153452885        4.68600180863840
H           78.34967166350340       -1.97614108484402        6.12771901337521
H           79.19405082545681       -1.51235512505367        4.63986501025450
H           80.89048532774078       -3.48926397791748        2.93188832193695
H           82.79916904219246       -2.06795426233388        1.66258313085178
H           82.76914683478914        1.93066759841372       -1.83866731989790
H           80.85318284200866        3.32208034800842       -3.09368601315932
H           79.01860137128196        0.47526716991183       -0.57113084555984
H           78.18982087411986        1.79029559037622       -6.27307616962343
H           77.32929317283811        1.32483785504116       -4.79487167220050
H           79.09314585127639        1.33451854875016       -4.81804026314689
H           78.20458788183178        4.09315739979996       -6.70824018382401
H           77.76405924576113        6.45399941505697       -7.17585571288207
H           79.25553637806235        7.05770817183505       -6.44474663642435
H           77.69400318194511        7.64146056949328       -5.85948876441956
H           78.19195332422370        6.96231787182693       -3.53263901502683
H           79.07916241612214        4.80852224330215       -0.97582585149787
H           78.16679378126989        6.29601285488238       -1.28520414703607
H           77.31551843137031        4.77227611927578       -0.97532034943920
H           75.58170977257802        3.28780216753241       -3.11108421531373
H           73.67256528875912        1.87037268811469       -1.83758920508579
