258
 energy: -502.701805356439 gnorm: 0.000803592587 xtb: 6.5.1 (b24c23e)
Zn          49.87397862692814        0.00500044675520       -0.07312603401846
C           46.46661204411510        0.04849343606557       -0.18657538043473
C           47.09991791677016        1.28447749798385       -0.13734570695743
C           46.42837831567178        2.55312673866494       -0.09100842121954
C           47.38890841737110        3.50873250558499       -0.02890773031562
C           48.66087355031245        2.83568407260556       -0.04706780927068
N           48.44964279950723        1.48876863227288       -0.10569993396002
C           49.91263136303968        3.45999724973051        0.01556572187696
C           49.92961472462440        4.94480469507195        0.06227542114414
C           49.40837689503200        5.68693774273099       -0.99772279886846
C           49.42813910918491        7.07605429988348       -0.95290765082874
O           48.93126483694321        7.80723310330238       -1.98100472870389
C           49.96412224216773        7.72853451592445        0.15836368148779
O           49.96719871230647        9.09920396577540        0.17601115172600
C           50.48133365310004        6.98785162065705        1.21788964177818
O           50.98675696459975        7.69770906710799        2.27577687222415
C           50.46946964579426        5.59931545981335        1.17279424713187
C           51.14947356620940        2.80575600247430        0.03875122756100
C           52.43169641407357        3.45398613260788        0.04499634528113
C           53.37468018616178        2.47713131566066        0.04789584774376
N           51.33881328423319        1.44931234827054        0.02684581544358
C           52.67972922115911        1.22381294416417        0.03590483738855
C           53.30703885641795       -0.03861232327871        0.01886082648537
C           52.64952598692516       -1.28479612573720       -0.02069096277638
C           53.31408541312906       -2.55412349651468       -0.06060792310446
C           52.34805151165926       -3.50671448193742       -0.10600272982960
C           51.08175981649107       -2.82783485191086       -0.08720394770309
N           51.30349762754108       -1.47679647969195       -0.04179153863211
C           49.83006904214299       -3.45037447949433       -0.14200883428593
C           49.81099950059122       -4.93579243137578       -0.16798018650679
C           50.32364656212741       -5.66257014154064        0.90677519200776
C           50.30164941386211       -7.05213547442656        0.88313173008527
O           50.79022211985004       -7.76840960700466        1.92556789099998
C           49.77225854381423       -7.72052061584843       -0.22189024319151
O           49.76719508323996       -9.09154070771743       -0.21905623512798
C           49.26382199044355       -6.99520827099827       -1.29608028271837
O           48.76474347304659       -7.72019370943112       -2.34711258883067
C           49.27741693291127       -5.60610504907714       -1.27199918109514
C           48.59329404581920       -2.79418778877031       -0.17624549443914
C           47.30575560927897       -3.43677975623224       -0.18922791761145
C           46.36807791420770       -2.45644002554068       -0.20763808269884
C           47.06969694884700       -1.20367993861816       -0.19564543615822
N           48.41404951926917       -1.44162339697358       -0.17415513932127
H           45.38119599871460        0.06215155178672       -0.20695599987874
H           45.35750103829971        2.68357471399879       -0.09764936227212
H           47.25255819352638        4.57639951564878        0.03472367128325
H           49.00346477813120        5.19126132019405       -1.87058405923259
H           49.03648436004362        8.74814276157416       -1.76339819412827
H           50.37218069873494        9.38566293869357        1.01007020352954
H           51.32584291553553        7.10299308245393        2.95751563677454
H           50.86169545574246        5.02914974598462        2.00682447669757
H           52.58988289303543        4.52044159172201        0.03269681427141
H           54.44736827090018        2.58870615554304        0.05072714891970
H           54.38379802631326       -2.69108499555141       -0.05946380251196
H           52.47986229475946       -4.57534502370072       -0.15978859542734
H           50.72468697655994       -5.15409283179926        1.77406204246023
H           50.68461834424747       -8.71237345257405        1.72206073389280
H           49.36947463931742       -9.38948820435849       -1.05262029340915
H           48.43589653763557       -7.13473604663351       -3.04173741289246
H           48.89222294456918       -5.04821566695372       -2.11758473300146
H           47.14350881456307       -4.50275086587787       -0.17246293825446
H           45.29435991377524       -2.56108940764510       -0.21959121035205
Zn          90.30343170279308       -0.05853813160711       -0.05447340703695
C           93.70972968629459       -0.09009458723220       -0.20306294256830
C           93.07505045691633       -1.32328941387739       -0.29021313650428
C           93.74505113419325       -2.58906401441506       -0.39711916489673
C           92.78368647821679       -3.54507538324045       -0.43684178297809
C           91.51268254788326       -2.87391969623319       -0.36478299008294
N           91.72534271899256       -1.52937593263842       -0.26949476713025
C           90.26064239641973       -3.50090348567269       -0.36193559709195
C           90.24210747969610       -4.98140037429668       -0.48493493358507
C           90.74911758994612       -5.59788168056668       -1.62898710132064
C           90.72811951606093       -6.98307463502348       -1.74241417918901
O           91.21132115445232       -7.59235602649647       -2.85317017208274
C           90.20538584591583       -7.75792467375627       -0.70591820493596
O           90.20115887947581       -9.12189231186018       -0.84403542871502
C           89.70231668422832       -7.14278549970751        0.43735239131573
O           89.20944442719974       -7.96847383102484        1.41427042646537
C           89.71522845557337       -5.75815104204698        0.55046125464743
C           89.02505109837344       -2.85345015515749       -0.25182719811465
C           87.74198653618890       -3.49781748236041       -0.30714893815164
C           86.80048861196744       -2.52739678034864       -0.18379617831003
N           88.83754383384851       -1.50449622824469       -0.10666822189595
C           87.49710296797467       -1.28109261355813       -0.05921842395860
C           86.87175893764778       -0.02479310085388        0.07510964482900
C           87.53068598839354        1.21734214600121        0.17407355513856
C           86.86770862558178        2.48300581496275        0.28867148500040
C           87.83468175287378        3.43402652759046        0.34437386430830
C           89.10003365926634        2.75709404512768        0.27085974030979
N           88.87667626925482        1.40988624572769        0.16184689390172
C           90.35183700182830        3.38145750134606        0.27450049656991
C           90.37243242790299        4.86006674131231        0.41994850770166
C           89.87781058838178        5.45693357606829        1.57971025005744
C           89.90061804264489        6.83995180866941        1.71674482868602
O           89.42986209347120        7.42991966379317        2.84291937199787
C           90.41227291316315        7.63227166482298        0.68783782065835
O           90.41827407032528        8.99349749375110        0.84937560730612
C           90.90242654868281        7.03662074147596       -0.47127289715152
O           91.38452062656746        7.87882106298503       -1.43948584479931
C           90.88862131136271        5.65396103358546       -0.60766247284903
C           91.58726275675762        2.73342064492328        0.15174812856878
C           92.87534165561431        3.37326811948696        0.19823092133924
C           93.81154556331271        2.40118356839989        0.05947345497682
C           93.10846212615751        1.15521665199188       -0.06359799319362
N           91.76471369496865        1.38939321668080       -0.00173432634282
H           94.79489579677258       -0.10186181057487       -0.23492330530797
H           94.81562138516460       -2.71832723827130       -0.42909390001125
H           92.91896516899814       -4.61298445002004       -0.49884839049848
H           91.14384436218302       -5.00594623741122       -2.44466955209687
H           91.10656559778164       -8.55186619604947       -2.74339162284193
H           89.80591358317456       -9.50104484221942       -0.04297490963008
H           88.87951240371946       -7.45457901106504        2.16292659009891
H           89.33390088452366       -5.28669369299486        1.44872385715074
H           87.58228544110094       -4.55589335364749       -0.43933292555342
H           85.72773275539944       -2.63825520286469       -0.18351461943721
H           85.79825414413585        2.61915355558123        0.31659246376837
H           87.70423955136316        4.50171414442215        0.41682819331959
H           89.49013764699055        4.85109137086520        2.38856748933888
H           89.52931643781508        8.39151816321977        2.74723969484599
H           90.79884647108142        9.38731239378775        0.04824544743719
H           91.69707918029560        7.37848346910728       -2.20456939622500
H           91.25976211709235        5.19793448801978       -1.51811789011123
H           93.03886798390738        4.43059090207154        0.33330396391231
H           94.88522981964699        2.50631754634347        0.04849235691880
C           55.93475411950313       -0.06191485325597        0.02682160923319
C           54.71235387324210       -0.05417387496590        0.02698807011682
C           57.28397708145949       -0.06625434949458        0.02155147038096
C           58.50646695106519       -0.06639766734819        0.01227011416081
C           69.41596815697660       -0.01195611108315       -0.05237773018672
C           68.19332786754063       -0.01974715582477       -0.05364240817814
C           70.76455349818178       -0.00560586322622       -0.04838754482268
C           71.98721212340847        0.00280967177612       -0.04570257923324
C           82.89508515595593        0.00632711952021        0.10483005089685
C           81.67266001093324        0.00834545583875        0.09469354446243
C           84.24423045807504       -0.00078225174898        0.10559139746444
C           85.46661400004503       -0.00917311090227        0.09677813554288
Zn          63.35010596725436       -0.04381282769871       -0.03737511874006
C           59.91132505595667       -0.06092812931212       -0.00354083312836
C           60.55001658114150        1.19247770090736        0.09437592378497
C           59.86729447852571        2.44290622994769        0.24289066100175
C           60.81878233349455        3.41061961302409        0.29641451005232
C           62.09236687622633        2.75943915296295        0.17187152270816
N           61.89204447778507        1.40913118150747        0.06007742769741
C           63.33518805151977        3.40307858330496        0.18740761751451
C           63.32692104853475        4.88539164523382        0.27596547591273
C           63.91561018488937        5.53144410621457        1.36348740363980
C           63.91092593094184        6.92039087802690        1.46063755942390
O           64.47305367617345        7.55948138672520        2.52010481789773
C           63.31672542641998        7.68444556660139        0.45128798788786
O           63.29953662662192        9.04183592260985        0.51449353316813
C           62.73330516023329        7.03049038797192       -0.63694842754430
O           62.17241502402810        7.83708533798450       -1.59408055868826
C           62.72890378318063        5.64583099292648       -0.73063554096259
C           64.58386845053242        2.77443524768025        0.12551447144715
C           65.85224295037592        3.44680610102201        0.09349067842413
C           66.81208717573229        2.48804470349576        0.03056406579746
N           64.79578631206688        1.42250348794601        0.06435096518860
C           66.13962712086710        1.22338466526285        0.01185827545126
C           66.78895116370316       -0.02683895011052       -0.05247183503710
C           66.15095263864207       -1.28209734094249       -0.11803941249392
C           66.83456565402741       -2.54074831818010       -0.15901274062309
C           65.88310579747632       -3.50694835304424       -0.22766025622472
C           64.60834609501292       -2.84556261243414       -0.23653588310743
N           64.80833962080243       -1.49280848174876       -0.15976032510601
C           63.36539604498876       -3.48512847781404       -0.28944308146944
C           63.37229942851353       -4.96710479999820       -0.40532609046057
C           63.93003379028276       -5.57423979028941       -1.53105980304163
C           63.92243586600119       -6.95930530553724       -1.64726828951788
O           64.44455735784982       -7.56311188212250       -2.74137822461131
C           63.36369199197848       -7.73785699738019       -0.63186840568004
O           63.38145626471600       -9.11870830632434       -0.78213868043867
C           62.84160863529792       -7.13428891767400        0.51045930043505
O           62.32953883948154       -7.89466851056487        1.51999577010271
C           62.82851115525483       -5.74778413819843        0.61485499922758
C           62.11649526957707       -2.85630920023414       -0.24287913751794
C           60.84727130430566       -3.52114448506866       -0.33950497456808
C           59.88713793296424       -2.56456926423655       -0.25650009329978
C           60.55986520979599       -1.30702570294205       -0.11903872067647
N           61.90464503717633       -1.50898237585331       -0.11870960918250
H           58.79690057241464        2.55849624606922        0.30566465760217
H           60.67154392533081        4.47113559862008        0.42312919635153
H           64.36726875032286        4.94865230235196        2.15846029536773
H           64.85037797704206        6.92842218825937        3.14687888371612
H           62.84577945861349        9.37548751102632       -0.27617850294206
H           61.79300005896182        7.30924152721399       -2.30857168366871
H           62.28129753428045        5.16284873542511       -1.59135105185887
H           65.99080713017209        4.51592309337775        0.10467618957535
H           67.88177362229786        2.61939662504500       -0.00898813560874
H           67.90575146320674       -2.66244929570415       -0.13189126587450
H           66.03013205885370       -4.57449900673848       -0.25847406558513
H           64.34824494643991       -4.97670403678149       -2.33073938750722
H           64.34878548931611       -8.52421434578318       -2.63189272737338
H           62.52441164955523       -9.50005847133270       -0.55126144779866
H           62.62380636676831       -8.81212818865911        1.42611305802962
H           62.41885151298064       -5.28838714364816        1.50509778709687
H           60.70942526017929       -4.58305264946500       -0.46479860865003
H           58.81676898384515       -2.69133929376405       -0.29175215322810
Zn          76.83038744789569        0.00734642851125        0.00920621517608
C           73.39154538798535        0.00462961547742       -0.03555100866748
C           74.03315471681908        1.25507494720725        0.07963614309673
C           73.35224310586206        2.50802757753587        0.21542561301585
C           74.30619277297514        3.47195123255683        0.28854820591694
C           75.57965153690841        2.81581401684581        0.18970709667169
N           75.37619232673724        1.46625716383480        0.07348788303210
C           76.82432428559648        3.45450262954654        0.22980232833894
C           76.81927274206582        4.93714462085281        0.31162835018913
C           77.38990508428941        5.58669838020520        1.40663223484141
C           77.38712638416833        6.97612011915822        1.49751340028440
O           77.93153746544793        7.61832842152659        2.56421628647720
C           76.81328619427461        7.73714550990061        0.47418988786308
O           76.79886402620106        9.09471557276357        0.53078779618840
C           76.24744415286992        7.07966832263108       -0.62126227422939
O           75.70559489361682        7.88350833719047       -1.59152269886857
C           76.24112297546471        5.69465671628530       -0.70884637798646
C           78.07162301039814        2.82024075269962        0.19727028522681
C           79.34332608995308        3.48701795821332        0.19019068324314
C           80.30020049967365        2.52401051431148        0.15202731776744
N           78.27896346995784        1.46727380312087        0.14615960040563
C           79.62299700747747        1.26208689740640        0.12327087137181
C           80.26792635577115        0.00909158943817        0.07466732029267
C           79.62590660578545       -1.24343130506739       -0.00282493740631
C           80.30445558710724       -2.50518779445284       -0.02732587928205
C           79.35063294226231       -3.46701959877974       -0.12083475457086
C           78.07969815176877       -2.79972804405771       -0.16150352395125
N           78.28362210847531       -1.44822605510522       -0.07744677335321
C           76.83573203113808       -3.43390132647374       -0.24971683148128
C           76.84007501111118       -4.91536746317239       -0.37232347364071
C           77.42339248633454       -5.51840495378283       -1.48703368836766
C           77.41571922570104       -6.90311377829894       -1.61011705917540
O           77.96424400348792       -7.50238985877675       -2.69333112169019
C           76.82989426983184       -7.68451022051994       -0.61257081032299
O           76.84897118980075       -9.06596229436671       -0.76454829880500
C           76.28101346139422       -7.08502231948057        0.51950783958822
O           75.74342249931441       -7.85043368245444        1.51121955723234
C           76.26902177582622       -5.69913922534339        0.63063448725470
C           75.58912912780984       -2.79988973933758       -0.23377179820064
C           74.31974261002848       -3.45856930782221       -0.36470785830019
C           73.36217550892253       -2.49795730637000       -0.30158409305271
C           74.03711742705633       -1.24403745608024       -0.14248996826840
N           75.38024205985292       -1.45188844066419       -0.10993276111977
H           72.28123478144740        2.62758646326610        0.25668944800343
H           74.16040670438828        4.53291208598240        0.41305477536088
H           77.82516927472585        5.00648362570971        2.21255645360252
H           78.29532221284913        6.98899655438647        3.20064504728701
H           76.35735019310134        9.42611135521360       -0.26772954222234
H           75.33545079721567        7.35375164275107       -2.30942582225526
H           75.80758150444932        5.20906166598629       -1.57527838290142
H           79.48607773126692        4.55558602844546        0.19974969228544
H           81.37104471436680        2.65055301658272        0.13539703927017
H           81.37401347605338       -2.63203537006385        0.02674398739034
H           79.49315121101456       -4.53524549436285       -0.14913835572018
H           77.86297896529125       -4.91839886928636       -2.27330261836559
H           77.86958011759209       -8.46419274292156       -2.58897038943590
H           75.97345550704966       -9.44070433872301       -0.60088819411572
H           76.03001541753301       -8.76947902889549        1.41022060746045
H           75.83907949151718       -5.24231057504128        1.51259361270399
H           74.18026209506753       -4.51936280681674       -0.49747459926361
H           72.29246985903937       -2.61968400772515       -0.36416980811645
