128
 energy: -244.814235973945 gnorm: 0.000679153340 xtb: 6.5.1 (b24c23e)
Cu          17.71226698187559       -0.05395901775577        0.04262591148436
C           14.30710083026515       -0.13743290183673        0.05806148122546
C           14.93782126314989       -0.18794321617756        1.29203508434316
C           14.25751263724911       -0.23903063527532        2.55470780138547
C           15.21211841115150       -0.25275552807423        3.51743639264457
C           16.48569001110648       -0.21946850446763        2.85036309605064
N           16.28751787619636       -0.17471762104260        1.50054852365512
C           17.72789067333137       -0.19706562271429        3.48893602843711
C           18.96343544960281       -0.12685173322772        2.84197432324848
C           20.23878053010005       -0.15409832872808        3.50077572064733
C           21.18812921629898       -0.09340996993831        2.53288673114690
N           19.15657501644761       -0.06070728126834        1.48773391104989
C           20.50099451484270       -0.03599706962430        1.27764640711580
C           21.14076976784133        0.01907578086766        0.02712318661417
C           20.48723092490863        0.05460394607515       -1.21698324553443
C           21.16080460385577        0.07866076801312       -2.48060619661494
C           20.20106071447685        0.10223354421636       -3.43979168506256
C           18.93282716374598        0.10094052649090       -2.76675286116737
C           17.68961668124066        0.10775792349974       -3.40319618384783
C           17.68098786025919        0.18206703788037       -4.88433117440499
C           17.12868816337209       -0.85375588302510       -5.64249502910423
C           17.12308609118190       -0.78206586917668       -7.02328631885280
C           17.66601474266321        0.32841621023845       -7.67257353045571
C           17.63476231780134        0.36032436017587       -9.15397981107120
O           18.18274634281273        1.46680915872682       -9.67959705683864
O           17.16662410404208       -0.50952877263652       -9.84384430708814
C           18.21714189731967        1.36631796024163       -6.92033591075876
C           18.22510418475731        1.29032197284422       -5.53860487675593
C           16.45384259651775        0.05022533992970       -2.75384010173866
C           15.17268254356529        0.10365785432369       -3.40496477080226
C           14.22887531739855        0.03046477294183       -2.43428054682896
C           14.92343325578406       -0.05774743509963       -1.18157569579251
N           16.27096888350303       -0.03747049562951       -1.40406406093532
N           19.14049321197383        0.06178807941133       -1.41363934043081
C           17.73549117516529       -0.24914295601185        4.97155903071773
C           17.23333347704748       -1.36599089064986        5.64439888541352
C           17.24350790162002       -1.41102353543524        7.02640507636355
C           17.75085971503219       -0.33805590568562        7.76179161617732
C           17.73728581400644       -0.43180337012941        9.24103681187908
O           18.24256045030681        0.65027590402974        9.85277503019335
O           17.31961700201866       -1.37811803536034        9.85912098236091
C           18.25133052133241        0.78058269247514        7.09466368681457
C           18.24488806430090        0.82095381137106        5.71139122755351
H           13.22207471744507       -0.15021817417367        0.06377301251779
H           13.18570534586903       -0.25460252068874        2.67443305544923
H           15.07334500972747       -0.27179290271627        4.58640782267023
H           20.38551131459170       -0.22523890647379        4.56632471252236
H           22.26019001047240       -0.09297123468454        2.64849509492845
H           22.23147789033093        0.07119993878492       -2.60809853691269
H           20.33672438574161        0.10507664537577       -4.50915612417823
H           16.71870194128841       -1.72309926487502       -5.14106068583511
H           16.70065993184285       -1.58468124895510       -7.61783706344493
H           18.12129438560224        1.40895708960111      -10.64691192752020
H           18.63685850812355        2.23151719217898       -7.41979669659445
H           18.64195922933375        2.10263918343843       -4.95387214011843
H           15.02162125719595        0.19846639192669       -4.46820829593223
H           13.15576791827904        0.04179761829722       -2.54218363403291
H           16.84957964383618       -2.20504746623769        5.07519693885191
H           16.86061498691476       -2.27701344075218        7.55521641140358
H           18.19845413912106        0.50883940367591       10.81238595589360
H           18.64283429301678        1.61710113237930        7.66140060738517
H           18.62313461988603        1.69486169589055        5.19298694557121
Cu          31.17621248637656       -0.04923232888516       -0.04853028232044
C           34.58132066757337       -0.13054778055192       -0.07325743822425
C           33.95075691255115       -0.03558926211584       -1.30468817392363
C           34.63123601499071        0.06280488515434       -2.56446860800088
C           33.67671779799768        0.16071777210713       -3.52238918586659
C           32.40305606919407        0.11346119013770       -2.85633565420137
N           32.60107034829394        0.00039591972160       -1.51049142002497
C           31.16081504629849        0.20686085314566       -3.48836049797920
C           29.92513644561686        0.19902261064742       -2.83788876789226
C           28.64979600473875        0.24443132126483       -3.49568472014436
C           27.70041124586390        0.19268078383823       -2.52731292596320
N           29.73198399348311        0.10962254279949       -1.48497509958094
C           28.38754942880044        0.10818270213629       -1.27359554020915
C           27.74773009430489        0.02120128103240       -0.02490875800048
C           28.40117152204871       -0.08460062611321        1.21524913015827
C           27.72750130203602       -0.20340379670553        2.47345065768742
C           28.68717525963746       -0.29043458752127        3.42903222487521
C           29.95549397394664       -0.21700463775873        2.76014328860398
C           31.19863008100914       -0.28579515353044        3.39306103157014
C           31.20722060661220       -0.38252970423146        4.87289371602435
C           31.75780707642107       -1.49969198422344        5.50663034582146
C           31.76364502509477       -1.58747353155119        6.88647964350477
C           31.22257750167713       -0.55826413631560        7.65946701639173
C           31.25461519867441       -0.69697103421790        9.13470367893067
O           30.70533507765458        0.34089249101273        9.78434902992789
O           31.72324969445366       -1.64033355582515        9.71970299729534
C           30.67299214102492        0.56017607188670        7.03187774261780
C           30.66492970639680        0.64386686605638        5.65058135999365
C           32.43440542301948       -0.27057248636448        2.74129798048762
C           33.71557938724067       -0.29561280101588        3.39413891270733
C           34.65940228734168       -0.25664936159441        2.42150433591962
C           33.96488482816617       -0.19681408383347        1.16710698050150
N           32.61734495092983       -0.20084887470245        1.39049105355829
N           29.74789841241824       -0.10138895249078        1.41140836896264
C           31.15334365172484        0.32620083216718       -4.96708295122862
C           31.65913855923524       -0.70397301024397       -5.76400673054392
C           31.64932125565196       -0.58932720652761       -7.14198296927995
C           31.13822421562262        0.55947682338703       -7.74899510757359
C           31.15066120689562        0.63615412768157       -9.22917485592489
O           30.64111702364873        1.77970927602017       -9.71230818507321
O           31.57428737705689       -0.22968783298294       -9.95201894573908
C           30.63432670444383        1.59220178291578       -6.95754495041812
C           30.64060215656335        1.47283170006916       -5.57885337713048
H           35.66634845672981       -0.14274921859081       -0.08032690670930
H           35.70307691070906        0.06304662922902       -2.68490082454706
H           33.81556290603498        0.26754476803026       -4.58617505204864
H           28.50313317392789        0.29478260428331       -4.56242888397648
H           26.62832771086792        0.20408131345051       -2.64221782526412
H           26.65681462896510       -0.22385143283569        2.59938207658167
H           28.55132905291093       -0.40900688051865        4.49178023545542
H           32.16634075914188       -2.30616747802695        4.90831954222755
H           32.18504747958137       -2.45376694267538        7.38455757037290
H           30.76685975896500        0.17191804549662       10.73854414439299
H           30.25460286735786        1.36273528667574        7.62773118806701
H           30.24943793613485        1.51884400729635        5.16343136479419
H           33.86673562542043       -0.32574991075671        4.46115948093350
H           35.73251067732853       -0.25984455747039        2.52996028073429
H           32.04548702554285       -1.60185531111890       -5.29519259470465
H           32.03494445892986       -1.38737320842038       -7.76693989257281
H           30.68656273991016        1.75034935179113      -10.68176912043222
H           30.23980005992241        2.48706174045947       -7.42424906201352
H           30.25942193950886        2.27989404515588       -4.96332208548908
C           23.76912031669222        0.03062498770660        0.00845150789524
C           22.54752598388619        0.02794826605606        0.01902442022345
C           25.11939824874813        0.03208944701639       -0.00368223562841
C           26.34097468916347        0.02976514717802       -0.01597637357399
