194
 energy: -371.242746361829 gnorm: 0.000386067711 xtb: 6.5.1 (b24c23e)
C           26.67132901035096       -0.10063965326351       -0.07944670932797
C           27.28784532100889       -1.30717089948566        0.22493353066426
C           26.64526588551203       -2.55297733356128        0.47147861434197
C           27.61166921036991       -3.47673771504733        0.75228024259785
C           28.87571006605595       -2.82189764435023        0.69601626512430
N           28.63044653719802       -1.52084124078087        0.36322524340526
C           30.14219964253264       -3.37983604592600        0.90778693568309
C           30.18083995837901       -4.81061163092183        1.28902411712330
C           30.85081843161585       -5.73752200906889        0.48423792224438
C           30.88315302191509       -7.07591219261774        0.83031796730103
C           30.24346038361400       -7.49192992563984        1.99461221992852
N           30.27252896410524       -8.89645006507911        2.36196498709405
O           30.87090603218195       -9.65004965478863        1.63773206088313
O           29.69492216591189       -9.22184427363804        3.36749302254641
C           29.57444035929002       -6.58518469806325        2.81184088980166
C           29.54397223085352       -5.24972527829060        2.45400555948348
C           31.35441200954777       -2.69504481180844        0.78401111904375
C           32.65163192508167       -3.28194290519785        1.07012010960623
C           33.56708235484968       -2.32205052768421        0.82533751961904
N           31.50222337516962       -1.39759123832849        0.40112569569432
C           32.82753353707829       -1.14814949304474        0.40304347643936
C           33.45961199800369        0.05869619121605        0.04055171125066
C           32.81745325486195        1.25826265101635       -0.32109368593613
C           33.45536181949802        2.47028278903284       -0.69566509165656
C           32.48348256827551        3.39971513836583       -0.94283597159370
C           31.22075784402094        2.78367339719799       -0.71900775782410
N           31.47422669626859        1.48832415201416       -0.35521019206256
C           29.95364441881550        3.35909912016579       -0.87104581458740
C           29.91263043955580        4.79266500382778       -1.23808573511532
C           29.28395383418136        5.20257519292621       -2.41840523451395
C           29.24186722752861        6.54043365040527       -2.76523189155144
C           29.82999503301015        7.47949740947588       -1.92244300795832
N           29.78650631925474        8.88588019914640       -2.28017255785107
O           29.22200883176577        9.18459286555034       -3.30129189376873
O           30.31887179941067        9.66770791696515       -1.53438040487586
C           30.45951197958727        7.09320786914989       -0.74244188602819
C           30.50031243809685        5.75227138127040       -0.40736788944360
C           28.73921762098421        2.68326660508240       -0.70502621166274
C           27.42972528280372        3.30867036592764       -0.81635062541186
C           26.52267216448271        2.33577317441830       -0.59952874970644
C           27.27620215786003        1.12112493896676       -0.34102265887946
N           28.60770294628060        1.37100703042066       -0.40183525832081
H           25.58674962139452       -0.12388483402920       -0.10979733652980
H           25.57940073517983       -2.71007629503725        0.43003874110472
H           27.46759727993376       -4.52260717633360        0.96947420802818
H           29.35022897334918       -0.81745559407245        0.23525208775594
H           31.33291729410375       -5.40333088320315       -0.42696784460504
H           31.39377284729905       -7.80213293520287        0.20942158503149
H           29.08927163782748       -6.93334833445956        3.71575218620250
H           29.03836879599179       -4.53233393649054        3.08987548345960
H           32.81743659138638       -4.28629574286886        1.42445949426802
H           34.63942309343670       -2.37462036690285        0.92328048792479
H           34.52259552213002        2.60342506965861       -0.76842298193678
H           32.62627537052047        4.41850779873061       -1.26397460274022
H           30.75565365386462        0.80182364701683       -0.15007634724048
H           28.84229566118328        4.46084600591699       -3.07353161798612
H           28.76237564307782        6.86624004928795       -3.68044802092368
H           30.90539085402631        7.84386402872439       -0.10104411994952
H           30.97388192113334        5.44145387066821        0.51664138845563
H           27.25283727430544        4.35274924281399       -1.01810044106742
H           25.44629998882519        2.40406667587620       -0.59730224177440
C           65.46455385199489        0.04063251487826       -0.12160581974578
C           64.85227875554146        1.23342335953487       -0.48322971086702
C           65.49967675081074        2.42686225991888       -0.91023530210072
C           64.53662708706744        3.36574675859407       -1.14912265005239
C           63.26980255598279        2.77819247619074       -0.86663315310256
N           63.51025846680137        1.49104709985395       -0.48055263948764
C           62.00528038167884        3.36792985124480       -0.98214001061501
C           61.97372597751268        4.79163724620628       -1.38995246834404
C           61.31681288682647        5.17774985704909       -2.56249427794521
C           61.29095790425517        6.50507106722555       -2.94966638337232
C           61.92405127440100        7.45680248232986       -2.15516474546016
N           61.90073505378621        8.85198038274909       -2.55697528494795
O           61.31468997015003        9.13049530840089       -3.57152570262425
O           62.47037108333007        9.64486736606782       -1.85160713032348
C           62.58082478942447        7.09417928417975       -0.98264592841331
C           62.60489120634222        5.76351983761940       -0.60712828264214
C           60.78991645527181        2.72012654664085       -0.74361467139035
C           59.49388184143628        3.37129481011485       -0.81740104095245
C           58.57511419538346        2.42621515488984       -0.53106094693926
N           60.63781259120633        1.41402716768553       -0.39316687466909
C           59.31136358975315        1.20445525933516       -0.26912082379008
C           58.67591859300130       -0.00913932839448        0.06317186494379
C           59.31409024145198       -1.22027029274538        0.39183892248165
C           58.67150905427217       -2.44539313131423        0.71203934640869
C           59.64002729134469       -3.37222024587251        0.98093814125464
C           60.90541771335055       -2.73730841135955        0.84031951734710
N           60.65666809931702       -1.44129942732351        0.47541815049011
C           62.17042958720570       -3.31517288970474        0.99983094178872
C           62.20675890884518       -4.73219410822531        1.42693930870707
C           62.82256538468923       -5.69660192309692        0.62251368932694
C           62.85949638795708       -7.02166640362862        1.01589103457509
C           62.27929006328048       -7.38695457796881        2.22747335486907
N           62.31683855731531       -8.77652027376484        2.64648627954881
O           62.86872149108184       -9.56332351442703        1.92054199571974
O           61.79254482051750       -9.05753899625016        3.69382144929335
C           61.66309713246451       -6.44283209296877        3.04407609413271
C           61.62728517321293       -5.12118260984219        2.63899983213577
C           63.38712200883620       -2.65774943900129        0.78412015716647
C           64.69458068095298       -3.25723610224822        1.00645763682610
C           65.60496870909172       -2.31618128940898        0.68725919356317
C           64.85554530732959       -1.13892403387265        0.28422652369320
N           63.52318203395832       -1.37827632637371        0.36504791370337
H           66.54917393985659        0.04139488062190       -0.15866188521183
H           66.56634304859980        2.53762496535884       -1.02167580028379
H           64.68466212413479        4.37395616858315       -1.50037324010073
H           62.78777571495425        0.82403575651905       -0.23088773248352
H           60.83972311158217        4.42561423830759       -3.17979606572638
H           60.79016567426019        6.81269544258089       -3.85973783873771
H           63.06149321117076        7.85459017457029       -0.37899687538571
H           63.10091202053361        5.47103161746528        0.31105149912556
H           59.33074503362107        4.41256356057485       -1.04300589544723
H           57.50245715417452        2.52338884804226       -0.48366515504223
H           57.60354879713953       -2.59114299200375        0.72670645675408
H           59.49309208760447       -4.40767097536313        1.24111527391991
H           61.37789998853887       -0.75315262205102        0.28571433652612
H           63.25812615389211       -5.40241992678818       -0.32520531984096
H           63.32882186049086       -7.77628368858217        0.39623782495983
H           61.22336797731755       -6.75167105712651        3.98479010864977
H           61.16405782652125       -4.37485400945809        3.27387525743719
H           64.86793036674962       -4.25655328776856        1.37171637092830
H           66.68117896416122       -2.37853609798568        0.72086947256631
C           38.66191943779733        0.07935990876560       -0.01469117926221
C           37.43351259265285        0.08998090520931        0.00399713823904
C           36.08936801938006        0.09187468941690        0.02099611117091
C           34.86541821905483        0.07793732099879        0.03536273529318
C           40.00573932652861        0.06037926372648       -0.03427753312727
C           41.22961392468316        0.03442054680412       -0.05189045553647
C           54.70169050877183       -0.05657675759527        0.05201340138115
C           53.47332582474765       -0.06754627125186        0.03428913931054
C           52.12930625552675       -0.07621981457877        0.01166013290233
C           50.90537168956673       -0.08028990599789       -0.01495416138144
C           56.04595812697650       -0.04288056684582        0.06453032185607
C           57.26986384178127       -0.02523213883373        0.07048366986968
C           42.63415635673001        0.00474384778221       -0.06708589072160
C           43.27569200838681        0.99382067056487       -0.83743941709456
C           42.64227914331799        2.01942432085676       -1.58558394471195
C           43.61733847370947        2.74703823512085       -2.21112988763890
C           44.87528150484272        2.18062158844464       -1.86721835020388
N           44.61858715348254        1.13106152760381       -1.02727464286224
C           46.14247743116535        2.61783182095269       -2.27419028747931
C           46.17025369677104        3.75391474977813       -3.22572885077071
C           46.79612302822138        4.95457460370763       -2.87667921114046
C           46.82309729704387        6.01664344482213       -3.76202125089041
C           46.22278731891763        5.87580705268545       -5.01000040065253
N           46.24942266583848        6.98717797517115       -5.94455971522783
O           45.71146012687976        6.83165770791116       -7.01081091098883
O           46.80711880139440        7.99578877622350       -5.59567371866840
C           45.59623465957852        4.68854595592768       -5.37791546015556
C           45.57018752713101        3.63447205870955       -4.48312063128471
C           47.36278247992954        2.07803379095984       -1.86236679925879
C           48.65483111747128        2.53157327293745       -2.34698635789788
C           49.58315854415165        1.78303816398438       -1.71692819033414
N           47.52699227423288        1.05734388660643       -0.97727516812234
C           48.85691700627070        0.86501503434205       -0.86165269164174
C           49.50046460873406       -0.08141713078133       -0.03938798147051
C           48.85935853100530       -1.04298982861979        0.76529069131251
C           49.49362177363720       -1.99280418899526        1.60704273399315
C           48.51843241360433       -2.74817224214409        2.19842689124024
C           47.25940670458075       -2.28497001579355        1.72736234203092
N           47.51591855833244       -1.24814531752428        0.87160438974063
C           45.99164114734571       -2.76286850460529        2.08330034654920
C           45.96168045755641       -3.91987960899598        3.00916041367257
C           46.55034648508386       -5.13426773792365        2.64329086095896
C           46.52318850668329       -6.21643186011345        3.50401980602540
C           45.90697532894851       -6.08162584659323        4.74483313423122
N           45.88054676696047       -7.21318679147900        5.65485049990977
O           45.33272196104515       -7.06196877639244        6.71658102463771
O           46.40961220373039       -8.23245906231821        5.29230378552696
C           45.31706304608204       -4.88086983364246        5.12935255852715
C           45.34499426948383       -3.80659204486121        4.25905844562516
C           44.77149443156117       -2.24236927903154        1.64672638175477
C           43.47893742626762       -2.80482142894756        1.99715211623280
C           42.55071932610279       -2.03014819083423        1.39932107542140
C           43.27743479131375       -1.00535200276105        0.67592268055340
N           44.60760521435150       -1.16457028638905        0.83219319936150
H           41.57673665345595        2.17591404728491       -1.63105559908527
H           43.47882733371100        3.60709198389912       -2.84558158671168
H           45.33086931578166        0.54460084501602       -0.60539309453580
H           47.24889217456287        5.05583309592903       -1.89732626362076
H           47.30052564315491        6.95271888761481       -3.49839339213422
H           45.14043548948077        4.60262545071333       -6.35697201846894
H           45.09716191098239        2.70039864692122       -4.76314135267446
H           48.80945645106674        3.30696798019570       -3.07945717023142
H           50.65635975902197        1.82060071461989       -1.81228856227002
H           50.55982428212890       -2.07737060129280        1.74116466461048
H           48.65776930118908       -3.54805421764608        2.90705949848281
H           46.80314133369406       -0.70777214733236        0.39285237191502
H           47.01538781061378       -5.23106588512830        1.66912535825095
H           46.97053608469902       -7.16329956545726        3.22650109634058
H           44.84715696075325       -4.80066033171867        6.10219274795928
H           44.90041914817398       -2.86251568765894        4.55144238747612
H           43.32402471882861       -3.68131669708089        2.60496558773117
H           41.47723147410310       -2.12693496883256        1.42176300643488
