128
 energy: -242.815386810955 gnorm: 0.000710242498 xtb: 6.5.1 (b24c23e)
Co          17.74828856136611       -0.10468304661554        0.03882831493423
C           14.37304391767976       -0.19859281396065        0.06228619879927
C           15.04435890623346       -0.47356043806820        1.23383158700303
C           14.38909544783647       -0.79601601568244        2.46473748904710
C           15.34299630636411       -0.79062688571968        3.42452179538183
C           16.58300403535162       -0.47808005737503        2.77579533386985
N           16.39471293498444       -0.32223024484875        1.42635186017138
C           17.76782606758215       -0.21403590635703        3.44966430877250
C           18.94718569078427        0.07677704464024        2.78200598409167
C           20.20003569805580        0.29757612049756        3.44011532085634
C           21.14900868521584        0.32585519604553        2.47463102147865
N           19.12482950938192        0.01714887401827        1.41779862724841
C           20.47440129339507        0.12514204927053        1.23137891438907
C           21.14334554641075       -0.04278347183022        0.01695866440083
C           20.45872549027722       -0.20076369098423       -1.18998566935548
C           21.11446333122270       -0.39776817185050       -2.44360607198750
C           20.15373594119710       -0.34177773716731       -3.39701874582264
C           18.91471444341931       -0.10233389285273       -2.72055711472621
C           17.71316663772276        0.14966396504570       -3.36638547282279
C           17.69698701682629        0.23785874846769       -4.84351662949468
C           16.90981179271192       -0.63959579427382       -5.59447360613765
C           16.89956112533097       -0.56082042738704       -6.97472248345890
C           17.67212591649625        0.39966873139128       -7.63038237021822
C           17.62505055943810        0.44656596323229       -9.11165511349532
O           18.40219128387846        1.40192470100576       -9.64350699536257
O           16.96180544533193       -0.29178791388561       -9.79446173577375
C           18.45820015632283        1.27926044886097       -6.88541269970723
C           18.47091911215685        1.19545753286477       -5.50409144066891
C           16.52288443765188        0.30277744352914       -2.66819591777556
C           15.26149052309521        0.59420682213724       -3.28483377132599
C           14.31956365568077        0.48190097457783       -2.31954212588461
C           15.00836795962785        0.13974917103246       -1.11256749468890
N           16.36403302113666        0.09345852504269       -1.32195108232244
N           19.10848136833658       -0.07167392394001       -1.35874493896984
C           17.77396656875353       -0.25489516461875        4.93121776330174
C           17.55112244577711       -1.45764700668425        5.60565877890631
C           17.55642043548192       -1.49227063079641        6.98802427126014
C           17.78065150859430       -0.32487172027884        7.72016698903840
C           17.77253191989303       -0.41252010802340        9.20028873788150
O           18.00374595292655        0.76029446242972        9.80905634762811
O           17.58210751542132       -1.42775255224238        9.82010924349149
C           18.00312495215937        0.87848656864748        7.05028573281985
C           18.00153694990802        0.91037641207982        5.66650261233496
H           13.29017008367926       -0.23724532777670        0.06879400983866
H           13.33083734637834       -0.97765304598863        2.56399456629477
H           15.22730186602552       -0.96242307600888        4.48222698707256
H           20.32840060055918        0.38989563198914        4.50616209710223
H           22.21418361038497        0.45504889374793        2.57889201808603
H           22.17499438922746       -0.55077489538176       -2.56204985911527
H           20.26268369268042       -0.45448767227534       -4.46330297425464
H           16.31991732918969       -1.39511335750890       -5.08808047475351
H           16.29511324713808       -1.24198321976066       -7.56361065135493
H           18.31595647757906        1.36577355437936      -10.61000557296422
H           19.05728882072804        2.02795466357507       -7.39010123091431
H           19.07229285005870        1.88700575838540       -4.92486047377264
H           15.12832130589293        0.84771876145846       -4.32396402693149
H           13.25184026295321        0.61086110501057       -2.39753247405662
H           17.38873665361158       -2.36692836257696        5.03831184528380
H           17.38751111780438       -2.42255196014185        7.51919056982652
H           17.98272393147436        0.61742441037894       10.76928861514883
H           18.17570089886663        1.78713995790799        7.61485570355809
H           18.16330874163131        1.84717775481092        5.14537829421188
Co          31.14020871748617       -0.09964622179839       -0.05052242786132
C           34.51541960881836       -0.19139310247142       -0.08471852723224
C           33.84404429161783       -0.32855678191707       -1.28021760200070
C           34.49931027394197       -0.50651526612224       -2.54014763162215
C           33.54548161457772       -0.38976751931073       -3.49288512657964
C           32.30549080056614       -0.15417903068413       -2.81238553451233
N           32.49375847651588       -0.15546918091426       -1.45396735804779
C           31.12064962245173        0.18590458650027       -3.45125509948989
C           29.94125855477214        0.39748935753162       -2.75446151971973
C           28.68832493350550        0.69241233563672       -3.38269565709664
C           27.73937803402603        0.60883027289775       -2.42039414876520
N           29.76368121415284        0.18081749045114       -1.40623693465928
C           28.41407669512147        0.26613654481332       -1.20861945009892
C           27.74516746032178       -0.04072569205600       -0.02164780941755
C           28.42980497937510       -0.33644190759965        1.15912029307957
C           27.77404091874934       -0.67621204809117        2.38177507799694
C           28.73473894748727       -0.73008873341680        3.33533604647453
C           29.97376789051847       -0.41449546738142        2.69089734048870
C           31.17538971003766       -0.23892494096086        3.36142410197441
C           31.19148129765618       -0.32157409781755        4.83888300490683
C           31.97789694521828       -1.28038051170846        5.48366632587152
C           31.98784197395348       -1.36148066635024        6.86378062484760
C           31.21572688162502       -0.48258852263238        7.62579966883974
C           31.26234043170509       -0.60716684182607        9.10258713553066
O           30.48542311068116        0.28068248263351        9.74105125327658
O           31.92499209832064       -1.41982819905741        9.69568068091882
C           30.43048130027718        0.47770763150292        6.98721402241827
C           30.41806573457811        0.55394124147438        5.60544716341021
C           32.36578470179776       -0.00714841842947        2.68548603096839
C           33.62735796420104        0.21030846098519        3.33157833401159
C           34.56925447096661        0.20931002507677        2.35975041864354
C           33.88024777929133        0.00919476518035        1.12139316408919
N           32.52454443999024       -0.05995517172107        1.32406743542111
N           29.78002801606648       -0.22740325116156        1.34165380181278
C           31.11453183824951        0.31607491151466       -4.92763482133827
C           31.33861192787928       -0.80081000849218       -5.73605452215552
C           31.33403888269600       -0.67595197476521       -7.11319980379194
C           31.10864791951581        0.56775027898904       -7.70612152296560
C           31.11616089963209        0.65087864905627       -9.18650453292152
O           30.88414366247415        1.88585238125064       -9.65625327522288
O           31.31046908098092       -0.28551669272915       -9.91903271128985
C           30.88481113015117        1.68573445131829       -6.90218310178547
C           30.88602615828722        1.55805736975158       -5.52392436390116
H           35.59827336601104       -0.22961107650061       -0.09567312795354
H           35.55752586375375       -0.67572448867046       -2.65973304940665
H           33.66125904867376       -0.43794875574404       -4.56335728514636
H           28.55987916072845        0.90706731463255       -4.43097053650524
H           26.67416001773260        0.74887415974948       -2.50905096562673
H           26.71352605743557       -0.84193014368277        2.48181775145810
H           28.62576666266273       -0.96460291267581        4.38159654222062
H           32.56739761860485       -1.97280949659908        4.89354175693704
H           32.59165806607891       -2.10651018853745        7.37020429072307
H           30.57128477290883        0.13301553228970       10.69692097548654
H           29.83176650303114        1.16355018098000        7.57485631332311
H           29.81728887435527        1.30814129537297        5.10981881409565
H           33.76065551915738        0.34219818638080        4.39300668867695
H           35.63707452885676        0.32757391552599        2.45205441680734
H           31.50148138012764       -1.76927604186815       -5.27715344547657
H           31.50370660847335       -1.53877552778691       -7.74789727770519
H           30.90670397112929        1.85475407272447      -10.62651441273462
H           30.71143125813477        2.65318831088813       -7.35841927669346
H           30.72332452658590        2.42849866639958       -4.89846639294619
C           23.76960044476811       -0.04550071343565        0.00261204691048
C           22.54738774636459       -0.04626519609387        0.00838495632816
C           25.11893023243663       -0.04391629355750       -0.00721816445200
C           26.34112908846886       -0.04516150049510       -0.01345544621124
