233
 energy: -363.172008159891 gnorm: 0.000556526670 xtb: 6.5.1 (b24c23e)
Fe          30.43469522961415        0.02103633083873       -0.02260972237866
C           27.03647161874030        0.13261530138148       -0.16818510807231
C           27.69759067752947        1.23909160044102        0.32350991136918
C           27.03046206232142        2.41470242784608        0.79750168308617
C           27.99500844090326        3.25962244934446        1.23186585918132
C           29.24996355666877        2.60010214813352        1.01563253673274
N           29.05588332086027        1.36781592381264        0.45213953690768
C           30.47682130814313        3.16199464557221        1.34086924580306
C           30.49716378376646        4.51972775769627        1.95411535883905
C           30.53697530612137        5.65255475761318        1.13574816289957
C           30.55358691564117        5.49752833496833       -0.36155965918305
C           30.56185994782712        6.91404247764487        1.71802046208517
C           30.54707070916157        7.06358974220732        3.10134983518657
C           30.59704879414383        8.43616035755947        3.71630231753940
C           30.50702570141072        5.92934413558494        3.90516680673370
C           30.48160731921750        4.65737233050780        3.34476329753925
C           30.43928106493125        3.43315678187246        4.21982398513501
C           31.68599048657251        2.52572319091393        1.11370472736718
C           32.95548634616915        3.10628649546834        1.43529669032836
C           33.90005519871102        2.21620058695828        1.04765903986307
N           31.85550134159271        1.28943982654086        0.53682995399778
C           33.20452770328708        1.09622510763713        0.49354092694934
C           33.85733216455659       -0.02146338046414       -0.03862149490750
C           33.17348180455856       -1.12724981148981       -0.55530385224113
C           33.83691292143963       -2.29003838860316       -1.05803115313094
C           32.86728887545885       -3.16709697493578       -1.41220530761906
C           31.61458750333199       -2.53135410770239       -1.13156050103023
N           31.81903514440660       -1.27454335243631       -0.61368902763424
C           30.38671866483474       -3.12824566614925       -1.36601202066955
C           30.36668714725236       -4.51187910493403       -1.91842591206014
C           30.39396871743320       -4.71152915741626       -3.30214701681174
C           30.44027894550988       -3.52766984696332       -4.23089071142107
C           30.38113131761654       -6.00670211548144       -3.80452933024352
C           30.34268317723630       -7.10512840575155       -2.95032139194894
C           30.31899251850636       -8.49947865779030       -3.51596873585538
C           30.31418541560803       -6.89410770369174       -1.57650783087520
C           30.32627762138080       -5.60669370416602       -1.05111700316541
C           30.29898864507268       -5.38508487070340        0.43763536166371
C           29.17568501326726       -2.49546711355540       -1.12198091068914
C           27.90099031510752       -3.09472708126243       -1.39163209793806
C           26.96149720885079       -2.17461834810472       -1.06958625068808
C           27.66367091761665       -1.01897830786685       -0.59718745532403
N           29.01766248418672       -1.22567253744229       -0.63542769791902
H           25.95340555731534        0.16451919446535       -0.20642126093556
H           25.96085091867163        2.55297432564749        0.79545350008624
H           27.88663799600953        4.24187373240623        1.66306025840607
H           29.65235983456088        4.98212006733761       -0.69902359354680
H           31.41401929624855        4.90159792955686       -0.67148344612789
H           30.60510100144041        6.46859884281197       -0.85299727145226
H           30.59295191579020        7.79386946845624        1.08364562934482
H           30.17770576965894        8.42810401998702        4.72248783686740
H           31.63318299127462        8.77644840922546        3.78148485503510
H           30.04393403238221        9.15314478827088        3.10878935839474
H           30.49468538404555        6.03625995580837        4.98492123849391
H           31.32305538315852        2.81542561205626        4.04901144914939
H           30.40430624343646        3.70840955008893        5.27344599041011
H           29.56057975965658        2.82948130728643        3.98544549288713
H           33.08942176855305        4.07197906043313        1.89526052309060
H           34.97261902404514        2.29561052038806        1.12249535701210
H           34.90704704416709       -2.40697312102762       -1.11760397090072
H           32.97365418609836       -4.15727505107630       -1.82491426048338
H           29.58346439741860       -2.87443182806379       -4.05607785145807
H           30.42930817150794       -3.84882983130311       -5.27196987370253
H           31.34578804334753       -2.94387543400067       -4.05473043929279
H           30.40349066912310       -6.16327518112573       -4.87807646810166
H           31.06008223779671       -8.60433841192259       -4.30959993032698
H           30.52575502743069       -9.23872346767927       -2.74217918936271
H           29.33654030658682       -8.71348311694781       -3.94254379185053
H           30.28460362417973       -7.74392582424220       -0.90242153003215
H           29.41003331750969       -4.81771376510122        0.71977971686399
H           31.17342611497331       -4.81216540465250        0.75174268515921
H           30.29170691505213       -6.33421288259974        0.97265164813699
H           27.76338921080023       -4.09048092957506       -1.78155607234031
H           25.88781336416506       -2.25267953255984       -1.13515306430686
Fe          62.46264631814933       -0.02439292392151       -0.05633098024380
C           65.85870930059119        0.00277565259776       -0.21271479434609
C           65.20413521655298       -1.16198518750699       -0.55830920448027
C           65.87477774055799       -2.36936782955853       -0.93814819099727
C           64.91068221761678       -3.26759422584357       -1.25014071176148
C           63.65274224895207       -2.60307423046245       -1.06959522425603
N           63.84524387920108       -1.32101304521020       -0.62967095825653
C           62.42812380650794       -3.17652392883935       -1.38275943108382
C           62.40610975130605       -4.56702987540929       -1.91725569949673
C           62.52947298945720       -4.79148461641139       -3.29134079215124
C           62.69734161211391       -3.62716069922228       -4.23070117961027
C           62.49455038731328       -6.09379551699100       -3.77581013656215
C           62.34040489260624       -7.17387233722045       -2.91268644463048
C           62.27802469003221       -8.57736578007029       -3.45204275935907
C           62.22161096018382       -6.93828949562997       -1.54686191124684
C           62.25278203196318       -5.64451281995528       -1.03999519065757
C           62.12069169492171       -5.39623937614934        0.43892104936217
C           61.22094508131566       -2.51453671954010       -1.22671354892709
C           59.95538443004308       -3.08060464598586       -1.58708857801618
C           59.00951123706274       -2.17846407107090       -1.23108888849155
N           61.04903679625104       -1.26613822226147       -0.67776159386721
C           59.69961448879454       -1.06947365165965       -0.64876425347639
C           59.04382031579107        0.01524092107028       -0.05624705660724
C           59.72653134874807        1.08169468401221        0.53934155572405
C           59.06618683163107        2.17800488400379        1.17729015532280
C           60.03376166160992        3.04986303819122        1.55049699817395
C           61.28200556669596        2.48196978099406        1.13639187448071
N           61.07792352170463        1.26389565722106        0.53331113659592
C           62.50044526084394        3.12699712630227        1.27373838831525
C           62.51693815665143        4.49246537066987        1.86952605838283
C           62.34055249301036        5.61037842132913        1.04830906651498
C           62.13335240036524        5.43006397781289       -0.43182529122168
C           62.35628586164759        6.88012836519813        1.61209118726738
C           62.54259627819051        7.05291352091944        2.98043167984553
C           62.57295651624539        8.43699849306103        3.57039060160264
C           62.71649982118077        5.93373217124028        3.78706145174834
C           62.70538104327481        4.65349873200552        3.24468716586282
C           62.89250274257768        3.44576914637481        4.12367698257581
C           63.70499155894022        2.56494097664795        0.87365522793507
C           64.97036295607538        3.22853610332750        0.99704708105549
C           65.91291934134607        2.35363785399364        0.57357754980461
C           65.22234255203504        1.15692471882772        0.19539322421888
N           63.86968206052384        1.30789728408495        0.35695126246728
H           66.94219447846945        0.00709411721665       -0.25155620568538
H           66.94597859944579       -2.49354092674889       -0.95618373464126
H           65.02138613857127       -4.28798812324473       -1.58044452340397
H           63.61983978478950       -3.08891703879536       -4.00446225784653
H           61.86732543516963       -2.92705579334318       -4.11989493198476
H           62.73541310798879       -3.96449040961595       -5.26602725837809
H           62.58865338742436       -6.26847158910355       -4.84263327370163
H           62.65009750215260       -9.29286106522617       -2.71838068138400
H           61.24346120058304       -8.83879214435236       -3.68675306677032
H           62.86612254299765       -8.66948218368895       -4.36545460292979
H           62.10260758881861       -7.77483908689450       -0.86605191880442
H           61.22281463263468       -4.81032680620835        0.64498832213128
H           62.05741606024583       -6.33557850310513        0.98735557014262
H           62.97889262965263       -4.83151321010624        0.80758253478219
H           59.82453327311624       -4.04599776558516       -2.04862761645471
H           57.93866768035313       -2.24705608865815       -1.33580133618328
H           57.99920887757734        2.25680600044260        1.31062944946236
H           59.92852132482172        3.99553011173728        2.05725982000821
H           62.96731545980560        4.87695115772179       -0.86763257069266
H           62.05145062158921        6.39363858506556       -0.93377049033759
H           61.22128964563193        4.86000171049718       -0.61904161961145
H           62.21939688716255        7.74837099156401        0.97575449496429
H           61.82117374590905        9.07290634741516        3.10142355125052
H           62.38962726389254        8.40773832767483        4.64448448980286
H           63.55184646971146        8.89196323548823        3.40251926428323
H           62.86105389370929        6.05833593950993        4.85525114004878
H           63.79399242791947        2.90278940419664        3.83316230145849
H           62.04548128894508        2.76529311228975        4.01925525686711
H           62.98200437424379        3.73576583069740        5.17011458816558
H           65.10064809383005        4.23299797646829        1.36666657039043
H           66.98235298996434        2.48382715343664        0.52302803481628
C           39.05600881199009       -0.05258853237069       -0.02853750085875
C           37.82650684858420       -0.05223402403510       -0.03420253980721
C           36.48423100501864       -0.04596334656023       -0.03422907658850
C           35.25929806737632       -0.03981687334351       -0.03704500113669
C           40.39808656850683       -0.05760704806464       -0.02327293532575
C           41.62328165156413       -0.06119062853890       -0.01675792873540
C           55.07430661233284        0.03738033455299       -0.02843967691309
C           53.84497911004821        0.03645527718499       -0.02023522388794
C           52.50255083479045        0.03108764592137       -0.01543623322572
C           51.27754655670122        0.02425452527326       -0.01216446365703
C           56.41691078848793        0.03359782000638       -0.03681327092503
C           57.64154948038033        0.02626154469674       -0.04490003397058
Fe          46.44989525186962       -0.00503755395088       -0.01575957221388
C           43.02446826995962       -0.05982514059200       -0.01335359190982
C           43.69116857657673        0.22747746619474        1.18379754515577
C           43.01099232467603        0.51163193148455        2.40875346045634
C           43.96672859937353        0.64871734849346        3.35961943518690
C           45.22603252860632        0.45213876598348        2.70721179873129
N           45.04175598575580        0.20629312264035        1.36868411312124
C           46.44317959597618        0.47305927410093        3.37131629591821
C           46.43898852330508        0.67993445406284        4.84663793407966
C           46.54420035610408        1.97075851653132        5.37207581267472
C           46.66483911920987        3.15133330367836        4.44591196070670
C           46.53475378424186        2.14880508692957        6.75066464466472
C           46.42206805982336        1.06188247049259        7.61118114491899
C           46.43119011751448        1.26346175619161        9.10236058651458
C           46.32079696786909       -0.21850258003729        7.07619648839760
C           46.32738378571279       -0.42074658869671        5.70135515892608
C           46.21554745782404       -1.80840621195657        5.12865447433328
C           47.66369699549920        0.31614415502192        2.73235592883954
C           48.92195808035888        0.35704511979781        3.41459247163730
C           49.88220773680023        0.23977787035001        2.46576110142880
N           47.85305666624572        0.15262401708864        1.38180994366793
C           49.20552582445128        0.12264387166324        1.21183500465301
C           49.87602985116197        0.00798824151434       -0.01156961898634
C           49.20807066157667       -0.12517192074362       -1.23463362191475
C           49.88640728283637       -0.22016562031945       -2.48948137915681
C           48.92929733174091       -0.37161427826527       -3.43674852306665
C           47.67140832120547       -0.37162589296524       -2.75278033974799
N           47.85761915644639       -0.20868048554156       -1.40188413488598
C           46.45478770197010       -0.56354626100341       -3.38998020162269
C           46.45565786939083       -0.77284564249246       -4.86494874868547
C           46.31132389594130        0.32279984508019       -5.72129048843552
C           46.15318687650365        1.70695290649572       -5.15095819349263
C           46.31512358074202        0.11887099259484       -7.09591925447506
C           46.45824810829416       -1.15821026618976       -7.62908765763332
C           46.48118189010302       -1.36121983936591       -9.11990953702411
C           46.60038069506959       -2.24041328566194       -6.76689104278788
C           46.60047009351236       -2.06056030219122       -5.38853611144332
C           46.75298551270208       -3.23586082099511       -4.46039051670046
C           45.23760425765076       -0.56424728628830       -2.72602101961341
C           43.98185761003570       -0.77726439105023       -3.38013353455848
C           43.02251323137833       -0.64091986958213       -2.43287720485923
C           43.69717274042328       -0.34496787368745       -1.20766354574085
N           45.04844155523722       -0.32263497402935       -1.38714066303931
H           41.94052788792483        0.58649982224776        2.51253328849854
H           43.84611243176333        0.86260579086797        4.40924809958258
H           47.56524230284737        3.06247376274224        3.83503252481708
H           46.71494640848010        4.08341857010159        5.00783600164787
H           45.80747268304722        3.19387620494154        3.77164612450884
H           46.61448606132515        3.15098980404608        7.15889299649235
H           47.44818196981823        1.15345444117076        9.48603152706535
H           45.80141962709460        0.52365707926507        9.59732370435839
H           46.07586216441869        2.26066018663293        9.36261687976188
H           46.23333498661962       -1.07220085214738        7.74025545719307
H           45.32110225955334       -1.89114856445389        4.50827174295688
H           47.07943075771195       -2.02953037058314        4.49910222658093
H           46.16047575453010       -2.55352544592770        5.92166450356984
H           49.03870356408293        0.46754715385757        4.48050451774780
H           50.95340523441793        0.23317979928119        2.58721554025919
H           50.95645454887364       -0.17503835140397       -2.61285212420720
H           49.04825482253918       -0.47703570339285       -4.50293201578898
H           45.25238141730617        1.76253978491150       -4.53673639498677
H           46.08009180239372        2.44914554096147       -5.94524346493463
H           47.00547406213040        1.95553439745956       -4.51590290951758
H           46.20322353099360        0.96875738651667       -7.76119389239864
H           46.13892264682922       -2.36258465075137       -9.38176321554906
H           47.50012951712093       -1.24096922068123       -9.49529865096151
H           45.84762108991255       -0.62887222516630       -9.62099356592058
H           46.71135000572396       -3.24019275429339       -7.17372047722667
H           46.82403765263920       -4.16765511660710       -5.02054543204367
H           45.89913025168840       -3.29777177046401       -3.78320362235909
H           47.65295131400953       -3.12374862586072       -3.85269503695507
H           43.86584422323287       -0.99733934354450       -4.42899861851325
H           41.95287152287260       -0.72347387887970       -2.53919484020840
