474
 energy: -752.943679587975 gnorm: 0.000913278543 xtb: 6.5.1 (b24c23e)
C           75.84066208914734        0.10606552103255        0.09680420607600
C           76.45114966545309       -0.05834173472588        1.33396487068439
C           75.80126515415667       -0.15980187483881        2.59516859527107
C           76.76289455590371       -0.32975156866907        3.55205603031743
C           78.03040502533881       -0.34828571403184        2.90454226477771
N           77.79233575039939       -0.16939375868722        1.57126893825499
C           79.29234647871142       -0.49876726632026        3.49477021570061
C           79.32026705888367       -0.72546899859924        4.95725991958890
C           80.00961872965088        0.14041168957521        5.80816989883347
C           80.02704502188953       -0.06124853916937        7.17618608265498
C           79.35546238392843       -1.14945004138176        7.75378811909380
N           79.41562004251352       -1.39101613104160        9.12279159192577
C           79.81456746572266       -0.27990397387760        9.98697007960884
C           78.38040601574349       -2.25097409512549        9.69826208564074
C           78.67779480967090       -2.02817047716347        6.89490417637769
C           78.65671497826621       -1.81270591074922        5.52912456275911
C           80.50513608561872       -0.44892968678335        2.80230284225966
C           81.80042056779133       -0.67168461841364        3.41833525612431
C           82.71948318640489       -0.52794179119747        2.44066991253035
N           80.65847540630092       -0.20354939729271        1.47094806960451
C           81.98372249568936       -0.23342720489825        1.22690864955823
C           82.62057275597108       -0.01325947595489       -0.01257041728177
C           81.98441366539156        0.20626682428545       -1.25007925655653
C           82.62965131650014        0.44795048038410       -2.49121049367504
C           81.66304799138399        0.59080283458914       -3.44851205420328
C           80.39671948143911        0.43249115967421       -2.82138367002109
N           80.64331309065072        0.21137389647074       -1.49131559329547
C           79.13508473121550        0.51195772373992       -3.42260252685961
C           79.10218328554529        0.71114057591963       -4.88824684063913
C           78.45072151558770        1.80989348495918       -5.45207305805789
C           78.42079471723724        2.00135097422474       -6.82124551725143
C           79.03935852593335        1.09023674985751       -7.69095250430854
N           78.96057483902989        1.24235294774087       -9.07133991196678
C           79.94983299766847        0.53200502964148       -9.88309258771995
C           78.60392708096251        2.56409796723218       -9.58696643427086
C           79.68105050527062       -0.02100885460059       -7.12278725661386
C           79.71643917258029       -0.19802284790813       -5.75191009063180
C           77.91934321430307        0.41659503037432       -2.73405101091110
C           76.61285460166545        0.44227624748804       -3.37234244903703
C           75.70148334811800        0.33769937735918       -2.38368867917760
C           76.45000750217154        0.23100808231907       -1.14455046238389
N           77.78230134677295        0.27253394880540       -1.39493112818409
H           74.75558677380944        0.13375919295228        0.11152446679803
H           74.73413418479583       -0.10168655488731        2.73983560264653
H           76.61210848023913       -0.42270987080876        4.61536543833730
H           78.51715648665829       -0.11999814119082        0.86310506815113
H           80.52118974936542        1.00194699152888        5.39285629277515
H           80.57335188938031        0.64372010947573        7.78938192944790
H           79.16642197919955        0.59239468026709        9.84681329780162
H           79.75858596872300       -0.60338807570830       11.02579161250825
H           80.84757789437363       -0.00365336527070        9.77359352056428
H           77.37588726023660       -1.88900241554477        9.45276545968110
H           78.50045475549366       -3.26896655588474        9.32609813519434
H           78.49848927061437       -2.27047781761114       10.78103256491348
H           78.16413783322760       -2.89807419350000        7.28360425291047
H           78.13521131638565       -2.51715753388838        4.88989781763048
H           81.96344474313885       -0.92105907243831        4.45429725199165
H           83.79182525026516       -0.62046825947035        2.50648017707666
H           83.69777696561185        0.50910652586224       -2.62430894703059
H           81.81184739449085        0.80123883319821       -4.49505676282236
H           79.92034566446556        0.08391415925006       -0.79081360635188
H           77.98029643796244        2.54175554240030       -4.80433545841042
H           77.90633502755618        2.87337399080512       -7.20384400626805
H           79.82592033938768        0.82210398739851      -10.92580880168214
H           80.97185240236774        0.76466175935528       -9.56436758044120
H           79.78203115819464       -0.54300527913729       -9.80825628410608
H           77.58697670322891        2.81315918883162       -9.28229395916769
H           78.63389393354275        2.53772285413475      -10.67574619357320
H           79.29292408768593        3.33640081955819       -9.22708356878553
H           80.15409457099908       -0.76773164121456       -7.74750099417359
H           80.20827833899179       -1.07440784611049       -5.34348630689088
H           76.43960574885151        0.51395337719421       -4.43406476917357
H           74.62518162890598        0.31851380315296       -2.45641607508821
C          175.52310415597572        0.12677726884444       -0.08546985847537
C          174.91186497449289        0.25554410027384       -1.32648181172527
C          175.56072530022618        0.45408190681837       -2.57660562360703
C          174.59855102026134        0.51057453231441       -3.54629318578139
C          173.33176406720608        0.33734180992348       -2.92066646074434
N          173.57071090230525        0.19976382493705       -1.58265361740730
C          172.06963909063742        0.32478017232839       -3.52925687581431
C          172.04064250390738        0.44673239675716       -5.00413032291585
C          171.34671709748775        1.48507064260626       -5.62813066378668
C          171.32854836579520        1.60982075579325       -7.00526772143912
C          172.00397538207196        0.69034481585957       -7.82209582311157
N          171.94333144679550        0.77659303681606       -9.20955171403028
C          171.54023096867769        2.05829330142113       -9.78866384726852
C          172.98073503580798        0.07916395430547       -9.97094286425436
C          172.68609171444459       -0.36250618239596       -7.19337878311777
C          172.70784412809800       -0.47330827469190       -5.81516205728806
C          170.85753539703720        0.20707090835448       -2.84386623164952
C          169.56240315975816        0.12874067042921       -3.49454880296688
C          168.64386852992902        0.03813142567285       -2.51005706216815
N          170.70478005605773        0.13572752182940       -1.49191161246129
C          169.37985407743494        0.04573869851282       -1.26123677941278
C          168.74343362016398       -0.02719199199404       -0.00423686282861
C          169.38016028574157       -0.09783620777416        1.25031210085109
C          168.73558390478917       -0.15057722144178        2.51398858368421
C          169.70274048629327       -0.23266916626853        3.47787501784825
C          170.96876061119787       -0.24069935460817        2.83051227021340
N          170.72141552831908       -0.14764597601572        1.48554868198974
C          172.23075519836073       -0.30275610096197        3.43308150865035
C          172.26457908821905       -0.45017211630133        4.90479332968439
C          172.91683521027457        0.48691866508710        5.70854460476100
C          172.94775083194077        0.35420347877541        7.08462286235667
C          172.32948424278416       -0.73430792170628        7.71870086987328
N          172.40957336766888       -0.90761805531391        9.09651850678843
C          171.42333609410366       -1.79022997809844        9.72133285333141
C          172.76328790148790        0.25893878268297        9.90536792463913
C          171.68696543918855       -1.68250526639223        6.90783438006060
C          171.65055810565184       -1.53532471671633        5.53345421666951
C          173.44610384258823       -0.23482385296525        2.74053915370904
C          174.75300150755999       -0.35817794259260        3.36649046471380
C          175.66378622922244       -0.22836839814546        2.38028731418479
C          174.91451165023662       -0.04310948589708        1.15090043109828
N          173.58235008993643       -0.06230660446050        1.40471993419267
H          176.60812345362521        0.15896431046690       -0.09372101986006
H          176.62755565297067        0.54730758132751       -2.70408785756553
H          174.74855045150417        0.66981614449385       -4.60182353672789
H          172.84649178918139        0.07998124858266       -0.88232705789491
H          170.83209077575225        2.22297866620439       -5.02225294715211
H          170.77862804314711        2.43658927007907       -7.43594785682143
H          172.18527606783161        2.87546822664636       -9.44694092631978
H          171.59722478026941        1.98824678366962      -10.87437104799382
H          170.50626932258191        2.27302999706049       -9.51704588400026
H          173.98434157531690        0.37734254704757       -9.64810393832282
H          172.86476241217352       -0.99810863659859       -9.84740407370277
H          172.86114688902774        0.31327402891657      -11.02811409210685
H          173.20287588419654       -1.11479734691450       -7.77531904146562
H          173.23287508073224       -1.30587937840139       -5.35909333453627
H          169.39920711161531        0.12612382578288       -4.56007905568563
H          167.57177999654385       -0.04043454235271       -2.59536279021716
H          167.66751019006418       -0.12268796899407        2.65813490688101
H          169.55452196671578       -0.27043529537281        4.54477823032041
H          171.44389352340531       -0.10896356652777        0.77409922465520
H          173.38715814858071        1.34938442272335        5.24873190685655
H          173.46293479021702        1.11290691251549        7.65945383868164
H          171.54965331102181       -1.75237868577982       10.80271270883962
H          170.40016058547289       -1.49130756630921        9.46834575401176
H          171.59240542925798       -2.81741575338504        9.39625075607359
H          173.78000751996677        0.57367249541699        9.66817217622392
H          172.73238131260536       -0.01942582635104       10.95825328703319
H          172.07310557637052        1.09248053849823        9.73361277652702
H          171.21391199713324       -2.55403557848603        7.34173024308821
H          171.15806636836658       -2.29236356916754        4.93253564148751
H          174.92689238070614       -0.53641846144165        4.41548720096795
H          176.74014624942811       -0.26335590497736        2.44592906698008
C           84.02509698762645       -0.01152230640137       -0.02897504697097
C           85.25027836316717       -0.00025655940631       -0.04240814526793
C           86.59211674550757        0.01138519368173       -0.05093533655824
C           87.82338664542894        0.02696783393332       -0.05861880240055
C           89.16037060803247        0.04694373098498       -0.06386800625048
C           90.39170892980172        0.06459227485726       -0.06543883054437
C           91.73321930638976        0.08573297002148       -0.06203319204599
C           92.95855800855693        0.10618437522131       -0.05944348214292
C          102.61841099152130        0.06095481817183       -0.00044292497629
C          103.84384420041496        0.03793127936766       -0.00035905993181
C          105.18525857672148        0.02260431624268       -0.00316502663363
C          106.41691635145560        0.01472882496853       -0.00268965596251
C          107.75380075673945        0.01056047767965       -0.00582756165995
C          108.98546034414197        0.01239110431736       -0.00972196992606
C          110.32692398198498        0.02086549501868       -0.00995182758612
C          111.55249914620283        0.03422518059002       -0.01290114496393
C          121.21472565194419        0.02492859877665        0.00943888245982
C          122.44028789208842        0.00957570182509        0.00583536607642
C          123.78173015648510       -0.00113753720291        0.00302178976497
C          125.01339413091877       -0.00532713584334       -0.00143172979380
C          126.35028399498260       -0.00379231235699       -0.00537729700046
C          127.58197844184448        0.00153007200036       -0.00960001743054
C          128.92344110538363        0.01132474195419       -0.01123736887108
C          130.14902153169967        0.02491054084560       -0.01568805019461
C          139.81134570632923        0.03858075562696        0.00604603979697
C          141.03689531633799        0.02326585044715        0.00168777865616
C          142.37836537773362        0.01348839545681       -0.00319310506692
C          143.61006265420284        0.01254430609527       -0.00384875086412
C          144.94695957734805        0.01622793765463       -0.00466503059930
C          146.17861838949727        0.02505245707271       -0.00768194146502
C          147.52002172971822        0.03878880908079       -0.00513574534640
C          148.74552387344272        0.05700391103767       -0.00477108766739
C          158.40542153562831        0.07706685618502        0.05461915509724
C          159.63072880786876        0.05511689121554        0.05471338602255
C          160.97223030735762        0.03271021003222        0.05534036836991
C          162.20357998998443        0.01422126184292        0.05401575990418
C          163.54059971795326       -0.00353307999211        0.04866229657724
C          164.77191672550643       -0.01637703294479        0.03916013984440
C          166.11373855190985       -0.02612513078769        0.02718246274275
C          167.33893602965657       -0.03183951581200        0.01214417051316
C           94.36199410577710        0.12242374987659       -0.05033277108666
C           94.98025923554340        0.05418676001294        1.21421256878934
C           94.32229804215015       -0.05499661139270        2.46555025803624
C           95.27875022303500       -0.05489592863809        3.44486759342411
C           96.54848125918474        0.06220671836119        2.81832637533778
N           96.31782528485229        0.11160749601182        1.46924091786968
C           97.80173165889161        0.10364168029138        3.44537541525484
C           97.79722927319193        0.11125814877101        4.92578805885168
C           97.13785892004094        1.11763348498468        5.63456354212081
C           97.13068016339365        1.13430422817538        7.01701840574195
C           97.77295088212364        0.12758508472704        7.75425423507987
N           97.80523115465699        0.16922081879891        9.14405094805313
C           96.77563798386097        0.96282624811398        9.81663353819496
C           98.16614325880904       -1.06056271025616        9.84939959810780
C           98.43859047767171       -0.88023020882142        7.03975903414653
C           98.45112367879761       -0.88213800134271        5.65692307406582
C           99.03149093469943        0.13957927541024        2.78430576169019
C          100.31205124758510        0.24117696686562        3.46025889684939
C          101.25660941858504        0.22432615483166        2.49645616989866
N           99.21845949191051        0.09284680620487        1.43578555905590
C          100.55098163866687        0.13013325043019        1.23458295070848
C          101.21522773176787        0.08408776539846       -0.00860894612092
C          100.59645798890156        0.07327935956241       -1.27491852692781
C          101.25357249382002        0.00668477899822       -2.52981647136961
C          100.29744780743000        0.05446952300120       -3.50825504620540
C           99.02876349328348        0.16028064813211       -2.87752090720350
N           99.25975341091780        0.15441412120952       -1.52733735960539
C           97.77621972683272        0.24004595794082       -3.50165552013608
C           97.77746359142296        0.29916846126176       -4.98083535924636
C           98.44718533998768        1.32010090044796       -5.65827233031908
C           98.44617039823261        1.38485941849677       -7.03940316640404
C           97.78443345491128        0.41414199950231       -7.80713648860990
N           97.74207400448128        0.50612197599926       -9.19409874484223
C           97.35433390260731       -0.69084907188595       -9.94035498983432
C           98.77808172114922        1.30778361707974       -9.84685780939167
C           97.10987418920591       -0.60936224677368       -7.12395176003021
C           97.10592883949184       -0.65939189300046       -5.74208096593711
C           96.54686360977101        0.26746575240488       -2.83866317090840
C           95.26789600970318        0.41275315190994       -3.50959885774040
C           94.32292389243533        0.36890395304052       -2.54700258152022
C           95.02693348447289        0.21472145755965       -1.29032342332936
N           96.35923128330806        0.16977120522129       -1.49327593328566
H           93.25423099063299       -0.12850791940153        2.59227843225390
H           95.11937745900420       -0.14188252064182        4.50721629720266
H           97.04442278906231        0.17432158875220        0.76401617345842
H           96.64266088416606        1.91619071606966        5.09248537999530
H           96.62281433940699        1.94942258565608        7.51624178620263
H           96.86826974714172        0.82319750359634       10.89303166154206
H           96.92652600567706        2.02053751304355        9.59799018992265
H           95.76970900092617        0.66505838208351        9.50092527402430
H           99.19791236208115       -1.32594427098991        9.61704941264217
H           97.50479771412972       -1.89041006694716        9.57631263912778
H           98.09532293531851       -0.88540664448796       10.92236095719518
H           98.95683509346951       -1.67778083326885        7.55624659308709
H           98.95745750012041       -1.68523654744837        5.13246170324858
H          100.44947296532740        0.32993904837233        4.52568895481151
H          102.32816000215917        0.28228856673027        2.60251673313046
H          102.32084458294037       -0.07296813367201       -2.65949671825056
H          100.45619508722250        0.00745237491781       -4.57321938019173
H           98.53353826621482        0.19687579187219       -0.82021297917601
H           98.95651360567520        2.09258512948107       -5.09204732214941
H           98.96241491579777        2.20976421725328       -7.51334908092670
H           98.00386522693044       -1.54102460292194       -9.70391133976048
H           96.32027443261953       -0.94737794064781       -9.70814599887308
H           97.41868537344843       -0.47778335665518      -11.00685013371455
H           99.78185002656480        0.98419149822225       -9.55030581358741
H           98.67489665271619        1.20776421440573      -10.92670295990691
H           98.64486377912122        2.35920515610440       -9.58970214444757
H           96.57744605545498       -1.38124286450103       -7.66443957701136
H           96.59159722778220       -1.47321613276076       -5.24252118886577
H           95.13170399342103        0.54668943631428       -4.57044061566122
H           93.25225099088306        0.44502415579457       -2.65028411781151
C          112.95579547460200        0.05049206451849       -0.00956184666379
C          113.57953410921445       -0.00797888281080        1.25291957765634
C          112.92712562909368       -0.11234860537029        2.50757345436179
C          113.88761945859039       -0.10333762311218        3.48289169270265
C          115.15433863574199        0.01494367366742        2.85048088260933
N          114.91787465005632        0.05569135100438        1.50201560100907
C          116.40981470907127        0.06423471762437        3.47235277546518
C          116.41125455712485        0.08014447306052        4.95271828685946
C          115.75235528572605        1.08901561531379        5.65837484551118
C          115.75242110548307        1.11466281113542        7.04069353118489
C          116.40192744261623        0.11487761854782        7.78106780913360
N          116.44217232908353        0.16631125861552        9.17020729945525
C          115.41367479097012        0.96066912973377        9.84354800567312
C          116.81341579358872       -1.05645380197637        9.88225974728106
C          117.06638432624631       -0.89590798307958        7.06963436155917
C          117.07160029839034       -0.90678969664100        5.68680660531566
C          117.63720452944376        0.10151024941686        2.80677874829241
C          118.91971129565812        0.20997753773870        3.47796040909584
C          119.86107335088879        0.19247669752792        2.51104552015024
N          117.81973434708938        0.05061930618426        1.45786496085764
C          119.15149033807690        0.09211720032232        1.25194117455073
C          119.81150350556749        0.04652743231979        0.00648021828655
C          119.18784255575001        0.03286227424554       -1.25734285983601
C          119.84015374150947       -0.02846718662575       -2.51493656577100
C          118.87971229501724        0.01575886295913       -3.48933365628452
C          117.61305194022410        0.11261260011074       -2.85315419273339
N          117.84957731584453        0.10618317603732       -1.50404929987576
C          116.35761860287874        0.18411122797650       -3.47272796802943
C          116.35502447965011        0.25024130575049       -4.95171336717101
C          117.01243438499469        1.28270085186244       -5.62375281258908
C          117.00891859519015        1.35592878457940       -7.00440323909894
C          116.35734562733597        0.38233488761732       -7.77714900581126
N          116.31255880472101        0.48186931321784       -9.16351314709898
C          115.94094750387298       -0.71616602384703       -9.91629142647946
C          117.33704449921078        1.30133970396213       -9.81232566109599
C          115.69514152575310       -0.65276174968343       -7.09934685912254
C          115.69328499299468       -0.71118407367998       -5.71773931072990
C          115.13024906685411        0.19986299539443       -2.80611992253697
C          113.84792964533239        0.33297622880716       -3.47322258709285
C          112.90648692008530        0.28380044732883       -2.50747736770016
C          113.61582798507543        0.13865942089823       -1.25265330274595
N          114.94761619440337        0.10288404828113       -1.45982752530513
H          111.85987799923063       -0.18923925623639        2.63911466196850
H          113.73298370031898       -0.18492478696356        4.54637033430770
H          115.64120282421823        0.11803930599163        0.79340998365102
H          115.25199703559589        1.88257712291471        5.11370937330836
H          115.24478939191010        1.93150951518124        7.53731838217264
H          115.51309075692679        0.82856090170951       10.92028844515691
H          115.55937817670046        2.01744513942762        9.61698079602729
H          114.40704013889182        0.65713384614953        9.53570919091852
H          117.84478772627224       -1.31891193100945        9.64486105378212
H          116.15403499107026       -1.89131259986694        9.61993417688043
H          116.74908267045612       -0.87353572097237       10.95433017337355
H          117.58955205377742       -1.68866658972756        7.58852303188553
H          117.57743254799779       -1.71185255681339        5.16487813568239
H          119.06057970088695        0.30323033374259        4.54254068852867
H          120.93275819076376        0.25460315215230        2.61321434654699
H          120.90734576763489       -0.10147249449585       -2.64912618104272
H          119.03423726483116       -0.02831709583558       -4.55504657936078
H          117.12628550748576        0.14413465582817       -0.79368174317865
H          117.51408658707140        2.05710898708909       -5.05331799383348
H          117.51531006517382        2.18945020413721       -7.47384437865216
H          116.60130918675573       -1.55899269876214       -9.68360015900659
H          114.91012785916784       -0.98733824405107       -9.68631502516801
H          116.00342445409638       -0.49681375229412      -10.98161678378016
H          118.34541950409741        0.98888612257242       -9.51945878142567
H          117.23346609238334        1.20730834898551      -10.89267081077596
H          117.19049219832961        2.34915939990549       -9.54784921358456
H          115.17076446023243       -1.42725525570498       -7.64395968599172
H          115.18871504387464       -1.53372039471794       -5.22251816124448
H          113.70721753912869        0.46278501791126       -4.53398331320472
H          111.83489491019328        0.35076665442717       -2.60749493834885
C          131.55220961885632        0.04851845986800       -0.01259325212903
C          132.17615914465586       -0.00815382443483        1.24989469761883
C          131.52403331509018       -0.11334204337218        2.50467427070379
C          132.48457083245853       -0.10250605340527        3.47990687244920
C          133.75110884530440        0.01695919657679        2.84733316669632
N          133.51441244787691        0.05726961802565        1.49884098855159
C          135.00659149469951        0.06740188475157        3.46887688024339
C          135.00934590360413        0.08149016213553        4.94924378390171
C          134.35059890795247        1.08860283973681        5.65747613026985
C          134.35387960427161        1.11270813177924        7.03985940258817
C          135.00663016333007        0.11311080392989        7.77762228606914
N          135.05111900088616        0.16338914094975        9.16667551830670
C          134.02522299386115        0.95770253562905        9.84395710258493
C          135.42409735798770       -1.06018137932429        9.87648947301055
C          135.67027683965111       -0.89635231112840        7.06354976335546
C          135.67229342947908       -0.90566215836303        5.68074566163451
C          136.23385054216502        0.10682161635558        2.80302228405872
C          137.51619616044496        0.21762894053080        3.47414018858542
C          138.45752387541160        0.20190703767287        2.50716412368273
N          136.41631248304412        0.05611006980162        1.45417778232091
C          137.74804693114359        0.09993290177280        1.24818780342298
C          138.40805229131905        0.05481842408048        0.00281009645550
C          137.78424086290218        0.03901422171903       -1.26091306732078
C          138.43643035294932       -0.02243758439468       -2.51851560367153
C          137.47574872270275        0.01968879858149       -3.49278532789123
C          136.20909186614819        0.11566120164791       -2.85647655914743
N          136.44580862425693        0.11035946304433       -1.50745893610627
C          134.95349064218127        0.18557657748943       -3.47610696082954
C          134.95187808916742        0.25184214660845       -4.95509159807258
C          135.60961679790753        1.28486248763211       -5.62602802277137
C          135.60951314199829        1.35740868298776       -7.00667706803528
C          134.96121162954054        0.38253482011725       -7.78056364965342
N          134.92123649703515        0.48101010839297       -9.16719649479111
C          134.55012559825539       -0.71698959257269       -9.92023424945686
C          135.95024803358649        1.29743406329381       -9.81283200369128
C          134.29778395282105       -0.65250233513682       -7.10391325864181
C          134.29256535241169       -0.71030503421652       -5.72224322324387
C          133.72613974503079        0.19966029644855       -2.80958114926736
C          132.44352166116542        0.33014756379820       -3.47663635453742
C          131.50223114489532        0.27941203692823       -2.51081857894699
C          132.21196009576349        0.13681828822988       -1.25587955140369
N          133.54373146573380        0.10309837913271       -1.46315527263496
H          130.45689340562828       -0.19143987329602        2.63637664956409
H          132.33013974522072       -0.18366049871124        4.54344992306104
H          134.23757309854662        0.12014150315698        0.79010873903241
H          133.84801585444677        1.88217657401480        5.11487894575786
H          133.84630980470996        1.92833580396789        7.53854918217602
H          134.12867138480684        0.82538337806439       10.92029089110479
H          134.17025734105513        2.01449261285493        9.61703317918011
H          133.01740504111072        0.65435963087392        9.53983749823339
H          136.45495851577428       -1.32229039657393        9.63649640424430
H          134.76421037316749       -1.89476441836918        9.61461455403434
H          135.36213481751673       -0.87856365562368       10.94890885835633
H          136.19559556986846       -1.68905889912012        7.58033795800810
H          136.17791719789165       -1.70947712689998        5.15669756855943
H          137.65699671732094        0.31126637820035        4.53869206407486
H          139.52910492693414        0.26594471300948        2.60925210711876
H          139.50367684248843       -0.09435592502152       -2.65281408588608
H          137.63020485829216       -0.02526476089550       -4.55846634187871
H          135.72261502466841        0.14797544125647       -0.79697553224450
H          136.10907291499842        2.06002068736458       -5.05468638683349
H          136.11610766349472        2.19126076568671       -7.47531495966970
H          135.20929067278288       -1.56033529939261       -9.68598947460076
H          133.51861869897220       -0.98711927777411       -9.69216803921425
H          134.61487275647264       -0.49801898857720      -10.98550823736933
H          136.95661163623853        0.98412156321353       -9.51402862067670
H          135.85208038526324        1.20093357159723      -10.89346326410766
H          135.80402375738308        2.34612738501594       -9.55163919087683
H          133.77551070037381       -1.42777975714528       -7.64943351453636
H          133.78760791700424       -1.53314979239662       -5.22792829059442
H          132.30257190565493        0.45926484218979       -4.53745649701213
H          130.43050268500681        0.34438614692062       -2.61075142307570
C          150.14870714894147        0.07977415737502        0.00394252393503
C          150.76738031406126        0.02417308226936        1.26907463825165
C          150.11004945796444       -0.08404739589764        2.52095349716613
C          151.06628614999926       -0.07283896535328        3.50037323700494
C          152.33529727155369        0.05086918187629        2.87355672090111
N          152.10430999813366        0.09282077191068        1.52401196628415
C          153.58806432357832        0.10379081654796        3.50006651579533
C          153.58663694964056        0.11185406236701        4.98042340543125
C          152.92159838082438        1.11225522064827        5.69223250772298
C          152.92268506350638        1.12997008637698        7.07476280643856
C          153.57964248321750        0.13052460463700        7.80900704183288
N          153.62256516971064        0.17514910590238        9.19828683407586
C          152.59178965101123        0.96084681332812        9.87816074571927
C          154.00259245385368       -1.04888433648640        9.90349518662339
C          154.24916524356448       -0.87249890588148        7.09135564552066
C          154.25322093119337       -0.87542193647384        5.70857312937379
C          154.81763339829382        0.14898209969376        2.83847533564042
C          156.09718289583284        0.26409478014133        3.51415402854368
C          157.04204101431159        0.25068849453872        2.55055003185289
N          155.00494973201964        0.09903168035964        1.49042790567960
C          156.33744265732670        0.14558148636731        1.28914609436607
C          157.00204809162904        0.09828517360957        0.04647685829997
C          156.38362677807908        0.08058368352509       -1.21973686414731
C          157.04142520467761        0.01763661484734       -2.47434078358442
C          156.08502195228220        0.05670104641510       -3.45292321933812
C          154.81548452694068        0.15226393002760       -2.82235833613475
N          155.04619786919713        0.15036758081100       -1.47237232162168
C          153.56228074173430        0.21832179678235       -3.44740318000103
C          153.56690192091776        0.28000370012422       -4.92658068744009
C          154.22691826260103        1.31118592045904       -5.59810668388254
C          154.23439025858866        1.37815235947137       -6.97904264018093
C          153.59172757147849        0.39928893182794       -7.75254975705825
N          153.55994391942599        0.49155280543485       -9.13994462000064
C          153.19709983738861       -0.71113027505408       -9.88963349816850
C          154.59152679977058        1.30698679993405       -9.78276346373165
C          152.92533412282532       -0.63345896402424       -7.07535787712281
C          152.91260818600423       -0.68574648664753       -5.69350364257841
C          152.33253653858426        0.23137921198052       -2.78547999560314
C          151.05204292526111        0.35780330818502       -3.45734630749828
C          150.10748220312263        0.30745061477545       -2.49471471677009
C          150.81303763070596        0.16830658130381       -1.23695438078398
N          152.14551271026988        0.13704181724545       -1.43944029625437
H          149.04254376702167       -0.16501198164949        2.64790896541895
H          150.90742642079229       -0.15629234767872        4.56309257210028
H          152.83060903616078        0.15771283047056        0.81867998983449
H          152.41598816434140        1.90593125559392        5.15260667638319
H          152.41025755936928        1.94070905211705        7.57646898798991
H          152.69494147663710        0.82422283057793       10.95398657700636
H          152.73132048965465        2.01942186856812        9.65614081261518
H          151.58590559132730        0.65345575607284        9.57173162092276
H          155.03488719744749       -1.30424113769591        9.66237474923766
H          153.34743124616898       -1.88627719216489        9.63870543934361
H          153.93983036122407       -0.87155953445599       10.97659362860590
H          154.77763965426010       -1.66497774086976        7.60526787403635
H          154.76368337868800       -1.67426436406601        5.18161307921873
H          156.23387986349707        0.35899728874278        4.57913289094202
H          158.11304239388630        0.31818393749112        2.65640571337445
H          158.10934399163477       -0.05316902204306       -2.60381317911585
H          156.24431094951512        0.00978397818771       -4.51780565867972
H          154.31965108955703        0.18779685077070       -0.76529911353830
H          154.72244143756072        2.08920526706458       -5.02722516116507
H          154.74275145089544        2.21063885650867       -7.44820464070267
H          153.85712833053825       -1.55144171749468       -9.64705117477612
H          152.16491127320154       -0.98313340039571       -9.66701890798377
H          153.26816351912416       -0.49706760924854      -10.95550333611859
H          155.59661951036227        0.99648594111058       -9.47681278426196
H          154.49986368854957        1.20598452946691      -10.86355515517129
H          154.44210879803586        2.35647908464086       -9.52668527059689
H          152.40672660471083       -1.41138691894304       -7.62060595928857
H          152.40580505043425       -1.50717529550820       -5.19872554182911
H          150.91463771852142        0.48419680812835       -4.51896591254807
H          149.03597759790867        0.36988478852246       -2.59861926330647
