242
 energy: -438.306585992069 gnorm: 0.000685461260 xtb: 6.5.1 (b24c23e)
Co          46.86223881218999        0.00512034403922       -0.43499167508813
C           43.79418328946401        0.14189306987578       -1.74858564662018
C           44.30804815066426       -1.10168749114767       -1.43962721503984
C           43.56737029677703       -2.32081014904821       -1.55498443602744
C           44.33603876216358       -3.29589677181496       -1.01325644602577
C           45.57924508492191       -2.68629502478019       -0.64062581887881
N           45.53027648251466       -1.33377182226269       -0.86536634878347
C           46.71472912477400       -3.38576213318190       -0.25022127230863
C           46.65501041806051       -4.85168875023227       -0.04799334086920
C           46.28650487724114       -5.71377404009523       -1.08082928972072
C           46.24661094778539       -7.08466669064226       -0.87747980076269
C           46.57383028527944       -7.60894873767316        0.37080495206956
O           46.54402813939892       -8.94461285664065        0.61344485541087
C           46.95024737048259       -6.75873981841298        1.40919403498838
C           46.99533071916547       -5.39298897073046        1.19446481939069
C           47.94997766993878       -2.75724885800797       -0.15232278111714
C           49.19916441882790       -3.45533699403291       -0.10793957263785
C           50.17569003542277       -2.51790073087991       -0.18416273814697
N           48.16492788531658       -1.40292204556321       -0.21970971259745
C           49.52207301201477       -1.24763709224992       -0.21363775639556
C           50.19397927932114       -0.03206575355763       -0.04937792374937
C           49.50275967431425        1.15005677717572        0.23956366585146
C           50.13147612657042        2.33552614295701        0.72880025918447
C           49.14080867175262        3.22650598526042        0.97838904581206
C           47.91288208983663        2.60158787120402        0.58639849735886
N           48.15029222792140        1.31414434647318        0.16517327144932
C           46.71176374085334        3.28394847797295        0.44987522660649
C           46.63728430096576        4.68295083294316        0.93269362800264
C           46.76758285184432        4.95728108626742        2.29621678646212
C           46.70858255167695        6.25713966442766        2.76619333067176
C           46.52832913892445        7.30856329510925        1.86917776912031
O           46.47949141285889        8.57257403946095        2.36308321469666
C           46.40940762166144        7.05081059411920        0.50559948459298
C           46.46290938673032        5.74430107704997        0.04461770279173
C           45.63285168855555        2.72400145809422       -0.22587484640091
C           44.45796387358249        3.44178961008681       -0.62516883935113
C           43.69875434239999        2.58391839245112       -1.34794010345221
C           44.37292597302852        1.32133797940760       -1.32688578580228
N           45.56243803728544        1.42325687109907       -0.65122488150853
H           42.82697918745946        0.19071875056391       -2.23530908130993
H           42.57235993136488       -2.39597971343489       -1.96424067747880
H           44.09718413189101       -4.33955029544099       -0.88849335537792
H           46.05319561420657       -5.31097427517867       -2.06004367593262
H           45.96635582329616       -7.75119704479237       -1.68613542010847
H           46.27036331653728       -9.43918778586255       -0.17068764706974
H           47.20488227305881       -7.18034230505993        2.37370206176339
H           47.28363472958499       -4.72982899050784        2.00240906894744
H           49.30328586648271       -4.52728489873639       -0.06194577468526
H           51.24483604800936       -2.65707976356424       -0.18693002860821
H           51.19334120155693        2.44883864549869        0.87753573614000
H           49.22670802876858        4.23356368344548        1.35297786913309
H           46.90303930015492        4.13797214274837        2.99334051402368
H           46.80232563624549        6.47258832505620        3.82337365213018
H           46.35237117977360        9.22181626912828        1.65833680171978
H           46.28042820202929        7.87305018938461       -0.19010363724400
H           46.39309021428420        5.54896924101311       -1.01958643379704
H           44.25159936100972        4.47233382439284       -0.38605197299302
H           42.74551545721076        2.76086412472410       -1.82035684583639
Co          86.86192950991922       -0.01809475845948       -0.50096232299677
C           89.87343168541429       -0.09899941144671       -1.91738718775183
C           89.33162862289970        1.13634359007876       -1.62220754205637
C           90.03017245170014        2.37287407104102       -1.80064268156305
C           89.29555964165483        3.32757560758047       -1.18024513359695
C           88.10695046218785        2.68931807035119       -0.69550890276184
N           88.15586910179094        1.34347450388197       -0.94830303598854
C           87.01596966278190        3.35394891473282       -0.14401861740724
C           87.09473199433540        4.80521356526274        0.14046076485830
C           87.33661365295021        5.73308869500222       -0.87251139603088
C           87.40068141581223        7.08874713581863       -0.58904846472260
C           87.22535558757940        7.53110801490001        0.72005327400748
O           87.28560377305215        8.84850339963312        1.04207670287325
C           86.97444927998953        6.61451497831366        1.73981143708222
C           86.90401778655871        5.26467189849490        1.44616522352472
C           85.79877901311968        2.71016995963089        0.03833761435821
C           84.55761699084177        3.39441697566816        0.24340301417525
C           83.57399389531103        2.46909854083468        0.11831291042856
N           85.57248600818889        1.36769311909245       -0.14820252556814
C           84.21849490436882        1.21254112846612       -0.09632124724325
C           83.54377293724039       -0.01565192060463       -0.10219481827729
C           84.23572171761758       -1.22418993915218        0.05057444683468
C           83.60785290308444       -2.45347692995676        0.41838617929952
C           84.60404333112358       -3.33493884948427        0.68290669837793
C           85.83747203134537       -2.66044499213956        0.41047826189153
N           85.59298156196944       -1.36105234709776        0.03813105656707
C           87.07103663903915       -3.29684306998867        0.35219135527619
C           87.16924359053512       -4.68584198124464        0.85574279320706
C           86.94457157096313       -4.94450880260665        2.21052167780984
C           87.02952674167939       -6.23139712123962        2.71018329148301
C           87.32953097800545       -7.28732890684002        1.85102263611314
O           87.40275326298952       -8.53819627799262        2.37322951512523
C           87.53939447321842       -7.04654162554605        0.49525221129171
C           87.46023411628190       -5.75206575712193        0.00492172967956
C           88.16112593414034       -2.69743966882783       -0.27065699844497
C           89.37218810783287       -3.37415307270876       -0.63198944965939
C           90.09357871503691       -2.51263373145053       -1.38929830623807
C           89.36321446019112       -1.28214227042678       -1.42044078926261
N           88.18448924986211       -1.40717423641092       -0.73222087202647
H           90.81971719835020       -0.13046445309598       -2.44506586486108
H           90.98184913901081        2.47216728826862       -2.29821913548972
H           89.52539773408945        4.37470522025513       -1.06874953518470
H           87.45033027199182        5.39462187848401       -1.89621857869636
H           87.58255648286114        7.80662571609836       -1.38165369987496
H           87.46351055575504        9.39437037483754        0.26441347369992
H           86.83631768553451        6.97295456966712        2.75236220561894
H           86.71384369723027        4.54987775787432        2.23895978008741
H           84.46059644980369        4.45418397310388        0.41502981610469
H           82.50712907481578        2.60605038606821        0.19283916953827
H           82.54218719244760       -2.59920958295353        0.49331955896351
H           84.52130523249612       -4.36390643954461        0.99332375723833
H           86.71609809110090       -4.12110906847649        2.87797031415202
H           86.86548517722495       -6.43362133233803        3.76146471854239
H           87.61338109930858       -9.19275693483732        1.69385891666701
H           87.75928114953180       -7.87305606471958       -0.17193020735639
H           87.60021174620810       -5.57216986671709       -1.05499535973090
H           89.62469071842457       -4.38378447656064       -0.35156084937041
H           91.05460855783757       -2.66626146400346       -1.85395859505098
C           52.81861644870228       -0.00704892807440       -0.06688641886378
C           51.59620464096681       -0.02088535813053       -0.04657188609118
C           54.16696205386040        0.00248038526976       -0.08327968708172
C           55.38943423350937        0.01390203323818       -0.09996161306778
C           66.20169149254433        0.01518513127060       -0.18973992090913
C           64.97840606143153        0.02265631766681       -0.19491071469785
C           67.54889350815090        0.00902380853674       -0.18825749437106
C           68.77219443746533        0.00041290252645       -0.18515333862855
C           79.57453478114351       -0.04154322073651       -0.16161914334535
C           78.35084987794269       -0.04306615427496       -0.17146436030498
C           80.92094414407347       -0.03435318307100       -0.14516848144091
C           82.14432203937726       -0.02620315590897       -0.11517448876266
Co          60.18443553142403        0.03307304466803       -0.17353827022742
C           56.79149663893242        0.02166867845367       -0.12286480551060
C           57.48213440559747        0.90042270275996        0.71665267383391
C           56.84309001367554        1.77334215954608        1.64866657203409
C           57.80374094817206        2.60517264819868        2.12177938043342
C           59.02301601342223        2.24184905361742        1.46601398937123
N           58.82443901772778        1.14799402163566        0.65702652321913
C           60.19982757694514        2.97680852884800        1.53537401640281
C           60.20363129847570        4.25950275633931        2.27261940258563
C           61.08655436912565        4.46785273720598        3.33569249425406
C           61.09172200934752        5.66521946295582        4.02818582540284
C           60.21339137432996        6.68223096165292        3.65771579711194
O           60.24960636644772        7.84669052431874        4.35420606312603
C           59.32946074177074        6.49021196484941        2.59814827412068
C           59.32476007150272        5.28361038428218        1.91646568579929
C           61.37204074366779        2.53974981000593        0.93364049510670
C           62.60163702116616        3.27284039227530        0.93108162775360
C           63.55507929023755        2.43419759624543        0.45574813895036
N           61.55832779580751        1.29093337408003        0.38714707233467
C           62.90086874498056        1.20092211826061        0.15540544325616
C           63.57759097785279        0.02765602347676       -0.19384631622816
C           62.89192677306575       -1.13883427391721       -0.54754456534871
C           63.53842874948561       -2.36937440631051       -0.87496419871515
C           62.57835678729694       -3.19382627191203       -1.36162744937087
C           61.35145274239826       -2.45685256743192       -1.33813294413716
N           61.54717476027659       -1.21879832960872       -0.77170361061190
C           60.16874591557346       -2.88481962698258       -1.92605472271733
C           60.16398111089056       -4.15057183397366       -2.69219906979217
C           59.30295557418262       -5.19107863187766       -2.34041010086283
C           59.29913728404037       -6.37911766652815       -3.05411640144774
C           60.15620427773430       -6.53544508090086       -4.14122563516127
O           60.18165198741886       -7.67999467120138       -4.87056120403451
C           61.01826504333579       -5.50251266948188       -4.50583982536578
C           61.02216709760157       -4.32420808948035       -3.78145809908942
C           58.98980854141892       -2.15953106519859       -1.81183178019453
C           57.75286216598145       -2.52548690805990       -2.43223582322589
C           56.79994698075102       -1.71336777645012       -1.91179004084265
C           57.46155420924871       -0.84637780969433       -0.99006448305482
N           58.80745174523128       -1.07963995309328       -0.98007513767197
H           55.79337775661347        1.74604926686526        1.89310309492508
H           57.70534250669760        3.39487499540910        2.84874054401316
H           61.76051030665715        3.67229134272816        3.63307384752152
H           61.76899083083885        5.82623393714646        4.85777728503438
H           59.59994531518097        8.47890107445206        4.01848137625900
H           58.65068291996904        7.28590023326560        2.31046610946616
H           58.64571180897011        5.14061778084761        1.08329205608080
H           62.71182532038755        4.29504856586835        1.25461079177794
H           64.60875486878329        2.61786418255207        0.31998973389955
H           64.59232323811980       -2.55986689107236       -0.75087694547978
H           62.68174078598483       -4.20950977355518       -1.70725653524741
H           58.64482877678276       -5.07612584679020       -1.48637372238037
H           58.63410570212380       -7.18775799137855       -2.77045517803673
H           59.54520869480929       -8.32588739516240       -4.53558382047721
H           61.67557286728757       -5.63618631741305       -5.35608310753331
H           61.68345231409265       -3.51601804081827       -4.07318915256213
H           57.63771069201388       -3.30467630657588       -3.16799581953545
H           55.74218820814375       -1.69463872522574       -2.11952330366873
Co          73.56202129167616       -0.02969381971162       -0.16523053028221
C           70.17269580925138       -0.00910241614914       -0.17759594823594
C           70.85694690868594        0.96968756588369        0.55143571293735
C           70.21392609350161        1.95965339040875        1.35458152999539
C           71.17690368114202        2.83569526606889        1.73497450443230
C           72.40073491563756        2.38475385786351        1.14519554864865
N           72.20147719511127        1.19625501145699        0.48211893465263
C           73.57892362430015        3.12010618897274        1.11521964192610
C           73.59205234443404        4.48431768461349        1.68615147618118
C           74.49430336938771        4.81982948060540        2.69959566114685
C           74.50561635645887        6.09005083267477        3.24665565562792
C           73.61434409694496        7.05337032741041        2.77672633088855
O           73.65473017413183        8.29045919956585        3.33312124236613
C           72.71398966688923        6.73586430144789        1.76197812548568
C           72.70323392182458        5.45760967065596        1.22677817343335
C           74.74612757198585        2.60790459720286        0.56262579855773
C           75.96982900683589        3.33811370389535        0.42921025160791
C           76.92055930020526        2.44353378973393        0.06112428878782
N           74.93227345676142        1.29405876729623        0.20187564741392
C           76.27145468320950        1.17545448026117       -0.03705019457617
C           76.95111727578293       -0.04048640723464       -0.17270982484883
C           76.26502359670852       -1.25368675009149       -0.29965175811340
C           76.90672998696330       -2.52601237085965       -0.38997496169025
C           75.94677033946734       -3.42100341843500       -0.73215448509804
C           74.72536773649152       -2.68610083859948       -0.86192016178426
N           74.92258930038496       -1.36838160830880       -0.52092197360272
C           73.55073779576394       -3.19812829682607       -1.39826074656496
C           73.54680214012045       -4.57329837204834       -1.94263604506063
C           72.64972014129182       -5.52722925546110       -1.45939344353591
C           72.64381365688396       -6.81615905322357       -1.96855904080933
C           73.53514438695437       -7.16379770626578       -2.98133305165366
O           73.55935532831369       -8.41219602011890       -3.51301490098003
C           74.43390428494678       -6.21977102246297       -3.47559886115272
C           74.43936682311147       -4.93874101025116       -2.95429285052991
C           72.38065604556688       -2.45035255561362       -1.44305416138916
C           71.15633808980232       -2.89396564286069       -2.03723623802441
C           70.20350707003081       -1.99470867620993       -1.68671569006319
C           70.85231076753612       -1.00143535652341       -0.89217450129200
N           72.19236262717368       -1.24841952065810       -0.80191542697986
H           69.16080213141062        1.97295756504095        1.58512198206104
H           71.07576937923736        3.71064770793149        2.35623017380657
H           75.17800105013841        4.06693542708350        3.07549172919768
H           75.19690169797977        6.34934390019381        4.03894305311415
H           72.99411821431997        8.87646984731027        2.93985542780648
H           72.02657665084675        7.49041814968844        1.39493603540902
H           72.01147399987977        5.21672639487208        0.42730785366401
H           76.07812367570232        4.39720807833720        0.59773150430396
H           77.97016896373961        2.61048984663605       -0.12010247775652
H           77.95777838560340       -2.69591908429956       -0.22012328282052
H           76.04782442246857       -4.48296102014816       -0.88651005425608
H           71.96445894756178       -5.26244623497621       -0.66187539347651
H           71.95025920975388       -7.55556688627264       -1.58272177312612
H           72.89450864848382       -8.98306735888732       -3.10490269610365
H           75.11766637952347       -6.50251708304837       -4.26639633785147
H           75.12854792713269       -4.20086541752697       -3.34943796462022
H           71.04867448223187       -3.77959553898406       -2.64210292813120
H           69.15313234940646       -1.99507755966237       -1.92986213078093
