146
 energy: -225.719702841092 gnorm: 0.000464207664 xtb: 6.5.1 (b24c23e)
C            9.02752825663748        0.11612617278364       -0.00122277082481
C            9.63401394488863        1.31403959792258        0.35485884206921
C            8.98065800348229        2.52118804149949        0.73082067037113
C            9.94195185108084        3.45599965988770        0.99521421630436
C           11.21361080488640        2.85259037361586        0.78006540240307
N           10.97695163750907        1.56054874691745        0.40430102234041
C           12.47549917200013        3.43698648884844        0.93461808337017
C           13.69247587353958        2.78036724089148        0.74167081265042
C           14.98733209226381        3.42831114299013        0.84959397957151
C           15.91222034309951        2.47927993940606        0.59658876043092
N           13.85285713526846        1.46870825811944        0.41141008767994
C           15.18107107807805        1.25638734036748        0.32686293812450
C           15.82299718329561        0.03621308695687        0.03036349766474
C           15.18912153007458       -1.18337230784220       -0.27550110181203
C           15.83461512266134       -2.41927996431341       -0.54407220628095
C           14.86887878073298       -3.35152300567260       -0.80509342107148
C           13.60277391576635       -2.70978406890560       -0.71240285730432
C           12.34292008735759       -3.28780915367173       -0.89859761212828
C           12.31881068275469       -4.71909283831540       -1.28878422723062
C           11.70910913448020       -5.66438797084719       -0.46484737367973
C           11.69549592308956       -7.00834656796507       -0.82170964024477
C           11.02728601645412       -8.02446437632663        0.06470479602884
C           12.29181788905150       -7.40355509582974       -2.01567931261618
C           12.90230911504844       -6.47201789480513       -2.84994591665026
C           13.52687884051504       -6.90678265706562       -4.14820525246178
C           12.91384720439697       -5.13133279814953       -2.48054121432168
C           11.12453293492898       -2.61799254468283       -0.74680475584123
C            9.82374188302472       -3.22072451992102       -0.99285445713889
C            8.90582611848746       -2.26653911226437       -0.73790249142059
C            9.64485152284323       -1.07887793691870       -0.34720017682307
N           10.97776457227303       -1.32499978095105       -0.37199833113616
N           13.84853617951845       -1.40314388075496       -0.38067594416185
C           12.50575397819854        4.86655020539222        1.33357489279575
C           13.09108046637973        5.24505039059160        2.54028300735553
C           13.12378594926453        6.58283236454021        2.92145989069827
C           13.77112166237315        6.97955164456720        4.22070906496058
C           12.57072495304640        7.54418077933648        2.08202197498482
C           11.98263431272954        7.18193665474065        0.87310380180566
C           11.40980501237676        8.23460357830039       -0.03712405479778
C           11.95043609692248        5.84150767964989        0.50534589193358
H            7.94216586550875        0.12431470220259       -0.00757645490558
H            7.91102285710240        2.64338485277185        0.79312281047514
H            9.79038091032497        4.47323075080969        1.31820222924709
H           11.70344414316078        0.88361805900957        0.19672392147351
H           15.14446853797148        4.47072606256075        1.07474455048842
H           16.98627682512212        2.57337793012043        0.58030263486026
H           16.90237449979101       -2.56757034988474       -0.53081776767485
H           15.01655060323445       -4.39463432534638       -1.03245708427299
H           11.26246982067954       -5.34678775695469        0.47097022684757
H            9.99917223299018       -8.18680590508392       -0.26699299840545
H           11.55103928756273       -8.97984438598255        0.02224503314679
H           11.00071479450324       -7.68155410226928        1.09906953251789
H           12.28398381222967       -8.45152354972189       -2.29733586201611
H           14.33211546843161       -6.23122486781822       -4.43744987336168
H           13.92574268767114       -7.91822329301430       -4.06741166277503
H           12.77614107965041       -6.90039361085269       -4.94173774149196
H           13.37540159686044       -4.39447564451339       -3.12892355289122
H            9.66126527004206       -4.23302973998406       -1.32653724543651
H            7.83086658872530       -2.32747855273260       -0.80655021591349
H           13.12577200630743       -0.70690758424811       -0.23083386163260
H           13.50802271349356        4.48530019504439        3.19225290283180
H           13.54461265493536        6.25362667993592        5.00232440199668
H           13.43004220821568        7.96336812336524        4.54281716436363
H           14.85597219276270        7.01632849642985        4.09856205663387
H           12.59549662899932        8.58932074506049        2.37303610632028
H           10.97723829991854        9.05240205656258        0.53987676808272
H           12.19929386198654        8.64700020570974       -0.66966060645017
H           10.64076980656127        7.81316755489939       -0.68464135059270
H           11.50730083139347        5.54887745508136       -0.44037034047309
C           34.35895236274232       -0.10192811848203       -0.05802722361037
C           33.75320016080393       -1.31558246405242       -0.35756519689816
C           34.40755896083824       -2.54674871941193       -0.64294551563589
C           33.44708516057317       -3.48753976781075       -0.88843277920577
C           32.17492578459807       -2.85893259881803       -0.77028924248307
N           32.41050310929227       -1.55405315515664       -0.44104685607477
C           30.91332549440892       -3.44195205334159       -0.93277739919556
C           29.69620024258328       -2.77814783504884       -0.76626590859189
C           28.40113069765602       -3.39166323426978       -0.99993064253498
C           27.47641629592423       -2.44527468561373       -0.73661385898652
N           29.53604200848994       -1.47973664133027       -0.38721237414197
C           28.20782024592814       -1.25394366825847       -0.35119437950236
C           27.56589232692145       -0.05141837605138        0.01029491372563
C           28.19917280788354        1.15582378367156        0.36282741009588
C           27.55269876518780        2.35732448717022        0.75617158279688
C           28.51757311600991        3.29479365396011        1.00121153775260
C           29.78413682379214        2.69568991209036        0.75565681827746
C           31.04366210530443        3.28976459414076        0.88583334784436
C           31.06722352066735        4.72231481235275        1.27090449441821
C           31.68362370561061        5.12401692047097        2.45538195494959
C           31.69774576718277        6.46452320814340        2.82503729180159
C           32.37474057636223        6.89560690602134        4.09803696400692
C           31.09396438422929        7.40699229365312        1.99777077350842
C           30.47604845680632        7.02242599570363        0.81165091445253
C           29.84249260139293        8.05186279739283       -0.08467313266895
C           30.46519615875192        5.67862525541229        0.45384924405881
C           32.26220589174567        2.63497966171581        0.67882016971482
C           33.56325414342609        3.27891021460468        0.77136801268657
C           34.48093438063412        2.32603109483541        0.51074821640882
C           33.74154950090090        1.10401578536168        0.24748784404654
N           32.40868758700998        1.32956836963703        0.34959695511160
N           29.53948933892115        1.40011991796759        0.38211827781187
C           30.88335166122998       -4.87700303003578       -1.31087766456038
C           30.29165557227721       -5.81213836949568       -0.46381450646569
C           30.25827481591007       -7.15924569078357       -0.81050748202785
C           29.60325227951800       -8.15602220534849        0.10699495901336
C           30.81785605499842       -7.56624535222844       -2.01706102151445
C           31.41282995601995       -6.64420560380304       -2.87408629491629
C           31.99325254757794       -7.09485838547030       -4.18740881512242
C           31.44497730044933       -5.30150131051997       -2.51480597326785
H           35.44433385202473       -0.10560979543522       -0.06667332447374
H           35.47727092387888       -2.68307737319280       -0.64986089898207
H           33.59966289047147       -4.52843694945261       -1.12354963414544
H           31.68326013159601       -0.86578257906404       -0.27815365985515
H           28.24343645696638       -4.40449292437248       -1.33354686772242
H           26.40229071328648       -2.51854210303378       -0.79679769396258
H           26.48488491088747        2.47729354932594        0.84361007079847
H           28.36886037388721        4.30951757776671        1.33258359630453
H           32.13524911447517        4.37848979625377        3.10060830708094
H           33.40300188493656        7.19806300706512        3.88683503104216
H           31.85712948075757        7.74540345599664        4.54385732472307
H           32.40199378621134        6.07962773898497        4.82028587680978
H           31.10167997045098        8.45392525104307        2.28324768385658
H           29.03778288666409        7.61174005363227       -0.67387114326221
H           29.44072248817177        8.88010170643731        0.49949607195853
H           30.58846923699184        8.45350336581527       -0.77422332342725
H           29.99866452480489        5.36900191899761       -0.47506671829387
H           33.72638973181670        4.32113852446529        0.99414836574452
H           35.55597663984209        2.41273917238300        0.48337246643951
H           30.26319624624070        0.72479070272171        0.15901092895527
H           29.87006413384234       -5.48490495273313        0.48027964382415
H           29.83191888633326       -7.92963602777157        1.14896436727547
H           29.93626374638720       -9.16970696829245       -0.11545146531847
H           28.51864773211434       -8.11692062243208       -0.01645320943532
H           30.79289145661814       -8.61525458875829       -2.29377578974082
H           32.42743601070780       -8.09100643109002       -4.09778070095472
H           31.20768881582354       -7.13491205506392       -4.94552950283129
H           32.76265109512939       -6.40339441802762       -4.53120439718293
H           31.89296525234075       -4.57227714587116       -3.18108064909513
C           17.22775415248675        0.02192612128333        0.03668174194466
C           18.45262255650189        0.00781723533901        0.04008031685512
C           19.79473989269688       -0.00232802591439        0.04261349040137
C           21.02575828209024       -0.01047377018240        0.04249853342094
C           22.36318456717111       -0.01782246606650        0.04126523085697
C           23.59412891086619       -0.02720876076886        0.03750132796937
C           24.93623404936205       -0.03402685609517        0.03123287717203
C           26.16110619728194       -0.04287887091654        0.02305707328216
