124
 energy: -218.417588733628 gnorm: 0.000704024900 xtb: 6.5.1 (b24c23e)
Zn          15.82863206650001        0.05125460270059       -0.02754476804675
C           12.42004807428060        0.08908500041166       -0.09579988661691
C           13.04900927385930        1.31965730352216        0.04825584323552
C           12.37318029439986        2.57672682705515        0.20868727948620
C           13.33065506962235        3.52741477897205        0.34577864618499
C           14.60478448261093        2.86332557608031        0.25862811596221
N           14.39833674044681        1.52647675981899        0.08444791365559
C           15.85580600126168        3.48286194185664        0.37319674613776
C           15.86715278657943        4.95287339261603        0.56444369768833
C           16.41545493409328        5.51036004868790        1.72391871925288
C           16.41810442895216        6.87948519899558        1.90727008828023
C           15.87757634523135        7.72516612375466        0.93272546573397
C           15.89114275575504        9.18248984474415        1.15126078009833
O           16.34530086063697        9.70825434440658        2.13535272092251
C           15.33373780204601        7.17029650275086       -0.22841265393470
C           15.32658828325379        5.79865884013270       -0.40845102961057
C           17.09583644197028        2.83492370895220        0.32818222918733
C           18.37534165137071        3.48652536168695        0.38726290509184
C           19.32187744055231        2.51908921178717        0.28467671580354
N           17.28960149860039        1.48801692549665        0.17928403541549
C           18.63190757011848        1.26924468992666        0.15538821163111
C           19.26346379648922        0.01718066186948        0.01500466625023
C           18.61075322062571       -1.22312758117665       -0.13244148918968
C           19.27924737170459       -2.48002009915169       -0.29966413638830
C           18.31626344649063       -3.42971010119805       -0.41549038220701
C           17.04814591580958       -2.76174768615448       -0.31192919584791
N           17.26492631906045       -1.41978557523426       -0.14976010529509
C           15.79667644813268       -3.38284264550525       -0.40017351132123
C           15.78054241059869       -4.85728723783636       -0.55161928904166
C           15.20669582136739       -5.44513509496370       -1.68289892807981
C           15.18578435690824       -6.82095299829117       -1.82511486603191
C           15.73462694066219       -7.63938361303682       -0.83467634253810
C           15.71824833515116       -9.10759266817869       -0.95942723316584
O           16.17404739502435       -9.85572036611585       -0.13247494347568
C           16.30877732625510       -7.05222674440817        0.29796259010711
C           16.33393479350911       -5.67798782023072        0.43635142354208
C           14.55642669403206       -2.73298615623450       -0.35680969272525
C           13.27105054411228       -3.37952306893146       -0.39855918788910
C           12.33011180475975       -2.40604393642698       -0.31820012131675
C           13.02760918984648       -1.15492928209132       -0.21482906916868
N           14.37314418182631       -1.38689746002959       -0.23604311473120
H           11.33449368231484        0.09900181134593       -0.10165890488460
H           11.30190098254490        2.70251551435876        0.22215676813724
H           13.19029033564542        4.58450281918053        0.50527266763497
H           16.82303838650845        4.85715354488191        2.48725477285524
H           16.83537628080678        7.31861929577640        2.80708768698880
H           15.44304844352253        9.77163307298249        0.32302436452298
H           14.91657969939147        7.81923758480222       -0.99166804242469
H           14.91520412972826        5.37231286105246       -1.31655186281636
H           18.52865993676116        4.54957705574180        0.48019545182763
H           20.39401279227306        2.63463854587258        0.28953044041212
H           20.34919747528145       -2.61103102286770       -0.33035720091273
H           18.45171682015226       -4.48772647352511       -0.57192931164507
H           14.79114351583903       -4.81252698353186       -2.45930086377789
H           14.74266494652203       -7.26776760398926       -2.70930196066576
H           15.24182344483523       -9.48031842773109       -1.89139084775626
H           16.72963734430993       -7.69528676154206        1.06350002955364
H           16.76708310013392       -5.22707847222763        1.32211042584721
H           13.11251468480230       -4.44392065805063       -0.46574234006775
H           11.25687250450606       -2.51459385368449       -0.31871161520177
Zn          29.30505449803023       -0.04618882377931       -0.03541263485751
C           32.71361852014302       -0.07310751299487       -0.10833968941003
C           32.08519186545865       -1.31203245249653       -0.13712869557379
C           32.76137806559860       -2.57904307682495       -0.15263270990872
C           31.80411672998076       -3.53978220923716       -0.15234085410794
C           30.52987012184374       -2.87026136220269       -0.14858377651728
N           30.73595229788094       -1.52215068058414       -0.13275010612179
C           29.27896402086305       -3.49996049120521       -0.12707250296416
C           29.26784180800690       -4.98230078174705       -0.14655937519207
C           28.71902292039516       -5.69862316196078        0.92182165807051
C           28.71662278254782       -7.07991701331827        0.90912818263697
C           29.25713441319695       -7.77867918395112       -0.17558085937409
C           29.24242151715210       -9.25222169998280       -0.16649447817420
O           28.79001398739219       -9.91237517980409        0.73367711066369
C           29.80140983856893       -7.06465977359891       -1.24603796558597
C           29.80897970853974       -5.68134982127130       -1.22938929136924
C           28.03871130945695       -2.85245284956658       -0.08326059555502
C           26.75951370211323       -3.50604977902335       -0.12233186215815
C           25.81265532243934       -2.53414323478032       -0.08618241167045
N           27.84458208778926       -1.49818044140480       -0.03667829106423
C           26.50225547511650       -1.27862189373004       -0.03126062008054
C           25.87016922550021       -0.01975437924998        0.01230280096587
C           26.52241397007862        1.22907062099027        0.04674703491944
C           25.85352886712200        2.49664745087133        0.06511253464705
C           26.81619565561039        3.45348292048639        0.08507303842891
C           28.08460923217265        2.77807833260362        0.08746753138238
N           27.86823559529786        1.42671425267206        0.05492505656632
C           29.33588551940815        3.40594675155403        0.08480172344340
C           29.35178321381130        4.88683799750744        0.14539790478085
C           29.92518118888016        5.63040869064564       -0.89051816803269
C           29.94662957329089        7.01240066634592       -0.83443068734567
C           29.39818956555163        7.68093728665852        0.26299902608910
C           29.41514602287181        9.15185867308603        0.34971950535813
O           28.95818995107522        9.77419240022348        1.27443706196155
C           28.82401692521141        6.93794224268935        1.30010444009377
C           28.79894145458110        5.55803745326383        1.24076789205906
C           30.57626714969567        2.75696157746390        0.03144093778218
C           31.86158188749643        3.40332367560736        0.07813072504639
C           32.80271981789728        2.42854902700550        0.01884598352253
C           32.10551918763424        1.17507658565209       -0.05284692900386
N           30.75990575782887        1.40733147851035       -0.03900895566237
H           33.79917700810562       -0.08161270583419       -0.11543967106501
H           33.83269742597608       -2.70518564385544       -0.15422957339177
H           31.94444735303890       -4.60880017662354       -0.14222308695999
H           28.31076447324664       -5.16025581342578        1.76976695753050
H           28.29909038923472       -7.64233169566792        1.73740236853658
H           29.69213594083392       -9.71803290817920       -1.06957089992227
H           30.21862120756851       -7.59873625204709       -2.09365177195479
H           30.22106814061709       -5.13036768380489       -2.06740278052270
H           26.60682587940418       -4.57142659323621       -0.18465719488148
H           24.74056508295232       -2.64928668845520       -0.10096123296056
H           24.78352991106469        2.63045514098930        0.05691420353013
H           26.68010449368893        4.52290584883286        0.08351604576628
H           30.34004279782518        5.11533481715618       -1.74974712010177
H           30.38984393000995        7.58094133984247       -1.64569620407979
H           29.89199914698778        9.65394321073153       -0.51932485048378
H           28.40332008671230        7.46497935748179        2.14978934440984
H           28.36634372745981        4.98525423147815        2.05335825920978
H           32.02017734620182        4.46660130156995        0.16091270033873
H           33.87594615737998        2.53650441345450        0.03111939289419
C           21.89186709740214        0.00466600562585        0.01621958711761
C           20.66974889755061        0.00662664252281        0.01480814507939
C           23.24181226606514       -0.00123456311455        0.01625850066464
C           24.46388286674863       -0.00970422639729        0.01413068786584
