154
 energy: -285.944237299924 gnorm: 0.000931793642 xtb: 6.5.1 (b24c23e)
Cu          24.19277374711134       -0.02404592684405       -0.02587164927621
C           20.76865580569923       -0.05247233135753       -0.05301742881894
C           21.41222619768339       -0.92042822972271       -0.92357146970005
C           20.75293108979736       -1.82250428177922       -1.82790991988329
C           21.72368882976823       -2.49140564997782       -2.49830228150578
C           22.98387254264036       -2.00360966394655       -2.00910108888814
N           22.76405191864423       -1.05231403351314       -1.05572681026212
C           24.22897943958685       -2.43602340134328       -2.44230476778297
C           25.45989682053246       -1.98630365995307       -1.98850880441624
C           26.73052900342559       -2.45820173379262       -2.45942034331550
C           27.68380914519999       -1.77753091537651       -1.77350138281497
N           25.65735322028673       -1.03047912968842       -1.02852963846295
C           27.00126815963966       -0.88622091709625       -0.88069710692123
C           27.63882708845367        0.00004726420068        0.00632809555411
C           26.97280030628665        0.87700087983839        0.88113672455493
C           27.62626016687252        1.78047040997050        1.78334279906724
C           26.65095834306578        2.44892993312805        2.45023736231030
C           25.39598299089184        1.95662059241079        1.95878746766561
N           25.62454066780083        1.00157591495280        1.00481708451879
C           24.15058964075255        2.38749666070853        2.39104665281182
C           22.91980641435145        1.93362660131625        1.93922998243232
C           21.64406626109652        2.39958076695045        2.40894281637939
C           20.69532047485131        1.71501804850335        1.72295959168170
C           21.38383094476263        0.82512067775445        0.82845924959093
N           22.73094714770215        0.97947078933755        0.98197817663273
H           19.68366738577105       -0.06100636784255       -0.06206144029054
H           19.68282531369505       -1.91924868896280       -1.92476846341238
H           21.61332288851174       -3.24963530739014       -3.25776427353968
H           24.24176874998902       -3.20172813414542       -3.21123382704886
H           26.86213270642687       -3.21362121861668       -3.21807161184578
H           28.75583453348464       -1.86206335236237       -1.85573450845640
H           28.69529981891981        1.88107782627624        1.88435380026379
H           26.75817972889568        3.20872597509482        3.20836150425044
H           24.13841859197020        3.15475245480425        3.15846206077227
H           21.50891936753913        3.15452047883542        3.16768563467345
H           19.62235375480983        1.79341536413692        1.80339562656261
Cu          64.70908130294515        0.00339921572716       -0.01236667386728
C           68.13314137966351        0.05275893236644       -0.00807063060430
C           67.48589456784380        1.27867504070991       -0.06751434285245
C           68.14142953191248        2.55649136346463       -0.12843708771504
C           67.16791357314224        3.49978207041069       -0.16858367759340
C           65.90969300125820        2.80618092122895       -0.13206313146374
N           66.13349314609813        1.46127528841305       -0.07339201345514
C           64.66287852039899        3.41442827611883       -0.14823698763938
C           63.43382626185279        2.77271438665100       -0.11323307922716
C           62.16114963586514        3.43560304307318       -0.12978845805651
C           61.21063087817981        2.46757993536936       -0.09068685669420
N           63.24032076122793        1.41858002197475       -0.06273655244255
C           61.89664630364242        1.20826253125841       -0.05044768088732
C           61.26347311895216       -0.04633391000393       -0.01718294134737
C           61.93219700453318       -1.28207646119652        0.01834382910345
C           61.28278008854645       -2.56062554001558        0.05918323829566
C           62.26084914412534       -3.50068632770166        0.10262417913991
C           63.51390507918227       -2.80138697418821        0.08762956243850
N           63.28146178244067       -1.45346510502434        0.03419496158612
C           64.76089434816841       -3.40741293360729        0.12530430342389
C           65.98989215159756       -2.76386036031088        0.10994493083889
C           67.26750386783070       -3.42091391622359        0.14717757634918
C           68.21352582582776       -2.44990321055752        0.10951448233050
C           67.52151834412243       -1.19146088281887        0.04922122975565
N           66.17499465984775       -1.41298101247809        0.05275216200936
H           69.21809079096877        0.06847383534748       -0.00668038513271
H           69.21112259387380        2.69626249977593       -0.13836920782575
H           67.27505511922770        4.57213086901085       -0.21842549975073
H           64.64681081756945        4.49864389562031       -0.19218408919407
H           62.02667780639334        4.50520748856977       -0.16723178207326
H           60.13832246760693        2.58264139821621       -0.09011105379404
H           60.21423553059579       -2.70659404720950        0.05605232249321
H           62.15711405526037       -4.57364639430070        0.14233047080170
H           64.77576659275715       -4.49162075902921        0.17036960279173
H           67.40574713244648       -4.48978716007024        0.19512542557333
H           69.28678720008901       -2.55888561547669        0.12042100640987
C           30.26653542787486        0.01545803141656        0.02005126692928
C           29.04479980628865        0.00984603087324        0.01623102941555
C           31.61634608204111        0.01940524782283        0.02102966722877
C           32.83825239126482        0.01773881182096        0.01880420108463
C           43.77394135840685       -0.02233887495926       -0.02499840347761
C           42.55203387469753       -0.01618540640727       -0.01879121015545
C           45.12342053091040       -0.02887485918694       -0.03090504589072
C           46.34536033539654       -0.03285832754392       -0.03190179198474
C           57.28266403394733       -0.07783252084828       -0.01939662730114
C           56.06134513988088       -0.07379262888394       -0.02245410850196
C           58.63426578700921       -0.07261939136167       -0.01869055970360
C           59.85540306053047       -0.06453456520155       -0.01776335943402
Cu          37.69550690183710        0.00148265549470        0.00138114241412
C           34.24370373117175        0.01507085070609        0.01386052769495
C           34.90248440455599        0.94156315178910        0.84259519907710
C           34.24196207489285        1.89017953478356        1.69190130603003
C           35.21242166085717        2.59816704366222        2.32446040162784
C           36.47059408170750        2.08518243969070        1.86405127663376
N           36.24919662392343        1.07829680618476        0.96357988862797
C           37.71343503788861        2.54510520234409        2.27298892074470
C           38.94995764230826        2.07798770821299        1.85286313940397
C           40.21537001323338        2.58383071989765        2.30089768084622
C           41.17554397710572        1.86841378955999        1.66088012974789
N           39.15676967031923        1.06835653154753        0.95208432739490
C           40.50137592018778        0.92255541924819        0.81944723201872
C           41.14689095475516       -0.01069356796571       -0.01253248734590
C           40.48778726163859       -0.93967160325297       -0.83864377642719
C           41.14837326968004       -1.89028173191623       -1.68545696499918
C           40.17796012476657       -2.59993911262142       -2.31640246933207
C           38.91992619158674       -2.08553546355339       -1.85775230850285
N           39.14109614748107       -1.07664697063083       -0.95952091608075
C           37.67702090024896       -2.54514144117107       -2.26715568057935
C           36.44078436469134       -2.07497073822668       -1.85006572273602
C           35.17532201539033       -2.57891806359970       -2.30025093654724
C           34.21520760616096       -1.86160992630589       -1.66243466261260
C           34.88941900320657       -0.91676380768649       -0.81968700856156
N           36.23396940185332       -1.06439771846355       -0.95036882926670
H           33.17214268473288        1.99154680944282        1.78328474680216
H           35.09990442003632        3.39752149482488        3.03995558327246
H           37.71909129402450        3.35438788296582        2.99628553337313
H           40.33978179616707        3.38394416190491        3.01355463730940
H           42.24673351093922        1.96316219834172        1.74283756878114
H           42.21811492526398       -1.99216154444538       -1.77700003350073
H           40.29095382300832       -3.40099727668229       -3.02988983374586
H           37.67143238881013       -3.35604892704844       -2.98859090201438
H           35.05114984356240       -3.37911949927154       -3.01284362715893
H           33.14403572071661       -1.95452095697735       -1.74650114375018
Cu          51.20200179477432       -0.04974387526896       -0.03172720488905
C           47.75057628374594       -0.03735556712744       -0.03366482603534
C           48.40596587650452        0.89433823987921        0.79226366654478
C           47.74170941236388        1.84834393784705        1.63249515971226
C           48.70933368351809        2.56548692289843        2.25905257792352
C           49.96952129931162        2.05224081193453        1.80447770245007
N           49.75212430055770        1.03537943892988        0.91433631359372
C           51.21064024817014        2.52207625580617        2.20723710777957
C           52.44878558333523        2.05368213734998        1.79310419556144
C           53.71226640580409        2.56896967110342        2.23629445441526
C           54.67536710798515        1.84589859345784        1.60977781839638
N           52.65956556525494        1.03186162679815        0.90748896278755
C           54.00525820246402        0.88545797842150        0.78121867126864
C           54.65384887128313       -0.06720388946086       -0.02454849741112
C           53.99877364326156       -1.01247427890442       -0.83384162653476
C           54.66271536666549       -1.97918812766833       -1.65997267652376
C           53.69511376834492       -2.69027664533154       -2.29318443351683
C           52.43496384602729       -2.16183016723553       -1.85583111991558
N           52.65225260340067       -1.14410229701326       -0.96718059396377
C           51.19412001615829       -2.61606156460195       -2.27763532969073
C           49.95590763120310       -2.13660860443583       -1.87715549775111
C           48.69245507081811       -2.63764073068007       -2.33626009292823
C           47.72945400957795       -1.91687221336061       -1.70666035641376
C           48.39989673529283       -0.97185490409364       -0.86117954833958
N           49.74498889865000       -1.12226638140881       -0.98255252946861
H           46.67153619477313        1.94718138239626        1.72242111661730
H           48.59338174953981        3.37149546200749        2.96647946980048
H           51.21333411099727        3.34041374324168        2.92025498643665
H           53.83308005506026        3.37936722304981        2.93788655362716
H           55.74612402724676        1.94351167687150        1.69369386946220
H           55.73279152660947       -2.08847227474608       -1.73801575848312
H           53.81069010280186       -3.50111838210829       -2.99511899118880
H           51.19211344835193       -3.43149400063242       -2.99396376282493
H           48.57123849485324       -3.43854836489099       -3.04858996582920
H           46.65867825541513       -2.00738252894532       -1.79816977632826
