136
 energy: -277.851507462102 gnorm: 0.000640395172 xtb: 6.5.1 (b24c23e)
Cu          14.44331556044359        0.02448349506997        0.03978006797083
C           11.03925181624088        0.13343001999234        0.08734246482132
C           11.66974033164945       -0.18538691077019        1.28057659728855
C           10.99007078939552       -0.50583528536419        2.50341630324112
C           11.94531992100266       -0.75623487467021        3.43235018731042
C           13.21850785797839       -0.57864054431752        2.78731415181624
N           13.01982221619181       -0.24079173871021        1.48013304767345
C           14.46247680016562       -0.74751457384882        3.40024216385983
C           14.47207906966689       -1.08647275654045        4.84457221563765
C           13.93600375709293       -0.19928619870048        5.78127073777691
C           13.94457623791726       -0.51108285179265        7.13085862827091
C           14.48897229830828       -1.72084941663836        7.53033572344964
S           14.50717483596298       -2.12006584212557        9.23705762618604
O           14.44009594270385       -0.93301744555586       10.03718662150409
O           13.06955180902452       -2.87249010536421        9.31747046024155
O           15.52831922317457       -3.08357278830541        9.52728492487456
C           15.03007217361109       -2.62020966616243        6.62596314717126
C           15.02064609281348       -2.29563149983808        5.27950221453720
C           15.69833653831670       -0.62322254168125        2.76194902731048
C           16.97434405904631       -0.73076627099641        3.41152772965650
C           17.92228480828907       -0.53788345506783        2.45991580810221
N           15.88922216254094       -0.35489626744124        1.43282250981531
C           17.23338038883443       -0.30471438793551        1.22614173196203
C           17.87149720540017       -0.07022174689575       -0.00471531178379
C           17.21550907372723        0.19389027195887       -1.22006997415785
C           17.88400512857579        0.38465438138930       -2.47215740595878
C           16.92365185083052        0.62605882462612       -3.40009531537239
C           15.66103934064795        0.59316537516870       -2.71710685904607
N           15.87128068528074        0.31722420704274       -1.39245168287636
C           14.41797865362490        0.79174866663616       -3.32206875292740
C           14.40838155637624        1.13029687772653       -4.76638204090715
C           13.78190346927165        0.28552015940158       -5.68596222753164
C           13.76771255641654        0.60036075249192       -7.03489935255821
C           14.38428463004162        1.76883978074173       -7.45161585346797
S           14.35579521185632        2.18282606314169       -9.15541926300580
O           14.50482680732179        3.59661070724726       -9.34548734511483
O           15.75255888483249        1.48572789245509       -9.60436410744039
O           13.27461986764304        1.51100530695707       -9.81137064394372
C           15.01036172233397        2.62864770473966       -6.56358029046490
C           15.02142153860281        2.30205736657853       -5.21771858937453
C           13.18337568446199        0.70270182801619       -2.67411047963407
C           11.90665225312953        0.96438331154923       -3.28272348659257
C           10.96388392665450        0.77683989360958       -2.32673539944382
C           11.65547567633791        0.41102956457493       -1.12346403573674
N           13.00012707053609        0.37763363181991       -1.36142503709807
H            9.95487508611850        0.16937314717933        0.10265699466257
H            9.91837316584550       -0.54062155097484        2.61946467149620
H           11.80725997713472       -1.04698818349989        4.46130024778759
H           13.52590178717971        0.74717876314573        5.44877913271644
H           13.54181130614354        0.17384739250030        7.86638896128447
H           12.93171339494981       -3.23631149494286       10.20040698879769
H           15.45299642574514       -3.55428973306697        6.97380621648132
H           15.42969949242505       -2.98943292773505        4.55433422980113
H           17.12246192195723       -0.91423628242691        4.46333067510331
H           18.99426150435878       -0.54441212395954        2.57503945972723
H           18.95137925992371        0.33076281227842       -2.61471724408369
H           17.05431349871469        0.79689337625744       -4.45637444657090
H           13.31488065389443       -0.62952887288251       -5.34085404183526
H           13.28372740490224       -0.04660892934006       -7.75565838963952
H           16.06982545320193        1.87868748999552      -10.42621030539400
H           15.47229811920036        3.53997200104549       -6.92211111219921
H           15.49404047278331        2.96763782781934       -4.50484924392022
H           11.75838638937782        1.26538252745675       -4.30725357021725
H            9.89400528716219        0.88287719817049       -2.41213807331920
Cu          33.04220035640222        0.03800465338033       -0.02922299686136
C           36.44628085923296        0.15650695238479       -0.03328808695611
C           35.81576812331021        0.30099637666167       -1.25988700673573
C           36.49540091693039        0.45480497927089       -2.51464736642830
C           35.54012349040762        0.56548108608567       -3.47032115919105
C           34.26695594715418        0.49241044237173       -2.80524869039080
N           34.46567812225919        0.32345802805244       -1.46573078949899
C           33.02297551009615        0.56187583361500       -3.43718640073149
C           33.01340585848435        0.78029797915379       -4.90458661577363
C           33.54939513043062        1.95073535754781       -5.44741883887777
C           33.54090520832832        2.15934268761371       -6.81675943860245
C           32.99671202797569        1.18251637495330       -7.63477347888931
S           32.97824139227841        1.44188778993293       -9.36827110681691
O           33.04475524863341        2.84055312854822       -9.67337048450198
O           34.41603448697305        0.77285965847780       -9.72120432099593
O           31.95724665448521        0.65336514706091       -9.99367897285825
C           32.45571428602103        0.01269461594253       -7.12647521553549
C           32.46504435726715       -0.18287171707261       -5.75532649647785
C           31.78713581333632        0.44143751884650       -2.79812011855041
C           30.51111225726698        0.58107496771667       -3.44153767254610
C           29.56318477692021        0.40865035479304       -2.48598981931452
N           31.59627159525693        0.19988807986743       -1.46386476474872
C           30.25211189214920        0.16989764489767       -1.25329734737372
C           29.61403137475989       -0.06677412258445       -0.02283291705101
C           30.27006962297751       -0.27030108339522        1.20410289974030
C           29.60160233661035       -0.55576473942688        2.43807284760711
C           30.56195719201540       -0.67400380166419        3.38957596141800
C           31.82453932893555       -0.45195498057928        2.74280621252989
N           31.61427432194287       -0.21909780671698        1.40988652566150
C           33.06760956884387       -0.49054837756838        3.37833820746359
C           33.07713754013689       -0.70932892630221        4.84559192036068
C           33.70360722096138       -1.83397845107428        5.38823532996404
C           33.71750448105404       -2.03967683102437        6.75806667534103
C           33.10065429819842       -1.10780955257046        7.57678110885771
S           33.12875737005301       -1.35249546205440        9.31300479849829
O           32.97894464288419       -0.10906802273704       10.01195606084996
O           31.73235865170433       -2.16690644979300        9.47222138407813
O           34.21028530896485       -2.21854754013688        9.67470524890405
C           32.47462171097725        0.01917399496708        7.06901972246496
C           32.46386027031087        0.21281164894760        5.69769304805196
C           34.30219482238645       -0.33384203914207        2.74330126397526
C           35.57892385030943       -0.31530143235346        3.40551809753905
C           36.52168284198685       -0.13670219878584        2.44780589656510
C           35.83007455153007       -0.03245452546821        1.19449357423849
N           34.48542386226995       -0.15130296132553        1.40334176289947
H           37.53066504657005        0.19535859350433       -0.03429451609351
H           37.56709255820584        0.46512405795427       -2.63540053024680
H           35.67813010909541        0.67542211908194       -4.53390132960099
H           33.95934015361082        2.70757741237100       -4.78888347608954
H           33.94359962981141        3.06752448947860       -7.24733352289507
H           34.55372107017339        0.76093877483859      -10.67611390988510
H           32.03294320523440       -0.72697010986762       -7.79470155014337
H           32.05605717210607       -1.09545808585260       -5.33763479324223
H           30.36295519668593        0.79895270380999       -4.48674914804972
H           28.49120444072616        0.44473336030077       -2.59546364627219
H           28.53425131791547       -0.65883999887669        2.55056628092571
H           30.43131612661647       -0.90551658908052        4.43423953084010
H           34.17082754818465       -2.55679302377942        4.72962250284139
H           34.20144158500588       -2.90708030236910        7.18902079823995
H           31.41528968022106       -2.10628569552164       10.38124901172145
H           32.01245710743657        0.73355933673344        7.73871736899275
H           31.99124715947076        1.09459750723417        5.28099162235157
H           35.72714831546471       -0.41377006821811        4.46880491358118
H           37.59156553510321       -0.06967768931394        2.56628259093315
C           19.27661330821253       -0.09819045616749       -0.01934102664821
C           20.50078211280693       -0.11614079219703       -0.02582795831437
C           21.84338467815315       -0.12907060546863       -0.02929504004062
C           23.07382679142808       -0.13502611020599       -0.02821013731488
C           24.41169255097876       -0.13555473890447       -0.02598272173095
C           25.64212691607915       -0.12935505248123       -0.02238240787363
C           26.98472522203289       -0.11633808301985       -0.02045068910265
C           28.20891789561851       -0.09809758364501       -0.01963644425902
