183
 energy: -304.697280318981 gnorm: 0.000544934436 xtb: 6.5.1 (b24c23e)
Zn          34.17684374377716        0.03035062146051        0.02470657617421
C           30.76303062705708        0.06841705182198        0.10945008262078
C           31.38259858856492        1.19469530785002       -0.41889676888377
C           30.69870320437561        2.33548524822366       -0.95962325120842
C           31.65046051788390        3.21288158500703       -1.36636809825728
C           32.92821054826265        2.62377515299331       -1.06614144846347
N           32.73039239352978        1.39638435643514       -0.50404463624191
C           34.17463488960787        3.20876781649020       -1.32087761675039
C           34.17956162844018        4.57218929766089       -1.90560988946383
C           34.77174227543284        4.81110544062893       -3.14814574818677
C           34.77775071136080        6.07993849159391       -3.70025441666575
C           34.20059328934007        7.14778001467634       -3.00878166161961
N           34.17017854775936        8.41166308720977       -3.57512726355431
C           33.60242489060652        6.91718022125367       -1.76760265285687
C           33.59293773212633        5.64313978138062       -1.22725080721351
C           35.41840636350847        2.61731124798489       -1.06845121175158
C           36.68755151742158        3.25834662096787       -1.26524168412929
C           37.64460373375309        2.36597501182710       -0.90492184733844
N           35.63059991736383        1.35563281719563       -0.57806357285285
C           36.97666655942189        1.17419567823376       -0.47744402867935
C           37.62665802382390       -0.00012939909431       -0.04096988013786
C           36.97199834071814       -1.17090622445494        0.39911900079870
C           37.63297894109668       -2.38633011670336        0.76647759300153
C           36.67448055160800       -3.26566021605346        1.15456603734602
C           35.41225956163835       -2.59263124727019        1.03570371308941
N           35.62849308155393       -1.32691530981303        0.55749584712788
C           34.16966897233362       -3.15839170040820        1.34682839796333
C           34.17370081153216       -4.52592958319576        1.92109948737605
C           34.83410428893383       -4.78953259271588        3.12385390198321
C           34.83913664332995       -6.06173785042236        3.66789145328744
C           34.19127886185576       -7.10876210994538        3.00776249727611
N           34.15989890337761       -8.37476985014912        3.56926621884495
C           33.52553593315392       -6.85369057240364        1.80643835703775
C           33.51821387537648       -5.57619682317031        1.27413814627125
C           32.92573029380846       -2.54206037832585        1.16276537714441
C           31.65172611688494       -3.10240728931801        1.52702025164484
C           30.70119417852791       -2.20034020730606        1.17487362169879
C           31.38283560100840       -1.07325584883341        0.60361918117158
N           32.72806885315320       -1.30680113001582        0.61795239802390
H           29.67774729116816        0.08112924312869        0.13789547067190
H           29.62651572353809        2.43730067122798       -1.02427847853518
H           31.50410889190708        4.17044547904007       -1.84014309913915
H           35.21525052083490        3.98590794090619       -3.69472003838399
H           35.23171392784937        6.25014942821712       -4.67047797123762
H           34.87775166851073        8.58068684506077       -4.27229241415205
H           34.05933660808358        9.16787852761598       -2.91861237583865
H           33.14988104664997        7.74176897196134       -1.22749586063916
H           33.14299712581429        5.47636771697527       -0.25455155607062
H           36.82902918380110        4.26719485316122       -1.61805652760150
H           38.71212794428985        2.50374171008405       -0.92146361475539
H           38.69573668893077       -2.55102989922264        0.71597321975948
H           36.80986646525849       -4.28581523645508        1.47589239189752
H           35.33226734403947       -3.98037660407330        3.64683476841130
H           35.34678682255675       -6.25090804173381        4.60753132286219
H           34.90773309839651       -8.57061477965534        4.21552641398846
H           33.98018848311606       -9.12294040422232        2.91867511536178
H           33.01858865574451       -7.66197651875710        1.29054098542918
H           33.01532024457381       -5.39107054659445        0.33113253797696
H           31.50718132733531       -4.05882260794706        2.00364227565013
H           29.63170210959639       -2.27732005284484        1.29488671874646
Zn          56.05074420422754       -0.04014803014774        0.06561043509072
C           59.46148190915049       -0.02688090335705        0.13665390421587
C           58.83298075507599       -1.08677482535075        0.77969315060753
C           59.50803452605854       -2.17807658938857        1.42383483071941
C           58.54971296157328       -2.99580117856827        1.92786385869424
C           57.27644414686859       -2.40638951216390        1.60939740437890
N           57.48387477062803       -1.25709306287128        0.90330363175239
C           56.02594286105639       -2.93240604588098        1.95705093319961
C           56.01029989122331       -4.17872119741536        2.76097238884398
C           55.39983467851397       -5.33405986630636        2.26667991361260
C           55.38536484093601       -6.50265161155445        3.00753987289678
C           55.97193976258176       -6.53594422611898        4.27495705812244
N           55.99453736408043       -7.71426402199442        5.00323433422130
C           56.58709924485846       -5.38609815105653        4.77594450348482
C           56.60516203174924       -4.22441690912154        4.02402896589505
C           54.78675664027708       -2.38051578176984        1.60949630261520
C           53.51092710024111       -2.87720243762436        2.04280230321705
C           52.56246696289326       -2.07001434499474        1.50176325098152
N           54.58892600989864       -1.27364744708637        0.82757395389103
C           53.24614587645743       -1.07114647423474        0.73572360457269
C           52.61192670181730       -0.04755493280664        0.00258921966635
C           53.26804740873133        0.97540373305021       -0.71190745763910
C           52.60878136543305        1.96606460918626       -1.50911740411302
C           53.57278648107388        2.77432431554557       -2.02016861789879
C           54.83382706344865        2.28757453816204       -1.53539738363365
N           54.61231095588865        1.18393871402188       -0.75523582833862
C           56.08243556913789        2.84576200144142       -1.83617946646087
C           56.09112608238618        4.08453840149976       -2.65157957877069
C           55.44709883865095        5.23857566840829       -2.19833170612648
C           55.45199823994312        6.39812250775367       -2.95338453312720
C           56.09315429658196        6.42350200736327       -4.19431572023530
N           56.13345338143992        7.59322912239677       -4.93562183313370
C           56.74333343007331        5.27552183446750       -4.65346461102396
C           56.74098874102142        4.12290050540005       -3.88751531678465
C           57.32114590804832        2.33115163614896       -1.43336661839904
C           58.60191038450718        2.93007604618549       -1.69952421297517
C           59.54457037924961        2.12222981769672       -1.15183557505503
C           58.85174840678869        1.02720493331687       -0.53352143972725
N           57.50770343733174        1.18612160583907       -0.71456398692561
H           60.54698561803492       -0.02231052785201        0.15943197909501
H           60.57923877856648       -2.29858961491560        1.47010646059838
H           58.68899450324620       -3.92424982595413        2.45833346198255
H           54.94916680725377       -5.31819808505482        1.28022616063865
H           54.91792502076599       -7.39600356761630        2.60768813531950
H           55.27714989891353       -8.37782214922225        4.75760528696527
H           56.11436733542944       -7.59617880606331        5.99666110241729
H           57.04645268384558       -5.40685073285767        5.75830110992713
H           57.06853270423337       -3.33090148187321        4.42816792941191
H           53.36072586565386       -3.72344094192189        2.69383169481917
H           51.49304194692833       -2.13329701162035        1.62160189333480
H           51.54449977844816        2.02244192362614       -1.67039980878071
H           53.44239716493444        3.61505854310213       -2.68246231328971
H           54.95403657784422        5.22925225510000       -1.23228754198684
H           54.95716042715725        7.29046888372386       -2.58553276009220
H           55.39401153974325        8.24759905876970       -4.73483135738268
H           56.30442979969676        7.46490065027990       -5.92032839559609
H           57.24545388842203        5.29011423385930       -5.61476933954836
H           57.23142502402095        3.23018382899929       -4.26027398702125
H           58.75600431110654        3.85804321654546       -2.22672927208496
H           60.61573851871898        2.25161938071414       -1.15280604497939
C           39.03784960717280       -0.00387834469357       -0.04060232540364
C           40.25716123672885       -0.00226194473385       -0.02399726742720
C           49.98501359482134       -0.04081573007164       -0.02354642978553
C           51.20273414726298       -0.04530622359338       -0.01434064457426
Zn          45.12558186657128       -0.01896625351905       -0.01697796840636
C           41.66798466815415       -0.00586354432363       -0.01977078841052
C           42.32597665182545        1.17954021999171       -0.41232763369574
C           41.66467435558524        2.39759464453631       -0.76920292892097
C           42.62736020430847        3.31635318908914       -1.03670258720795
C           43.89241191388175        2.66429788900757       -0.85565608839632
N           43.67334138220104        1.36721796956601       -0.47238284010782
C           45.14008954795386        3.28090962902887       -1.00233479580516
C           45.14377047790386        4.70640308143330       -1.41716202840272
C           44.62093408509746        5.09048285935915       -2.65385339607652
C           44.62703573700717        6.41784292778539       -3.04559366464976
C           45.15740855555906        7.39535410950526       -2.20048629336584
N           45.12130232329068        8.73119194664607       -2.56855891074822
C           45.67006447521508        7.02131258409917       -0.95628919917205
C           45.66814958045022        5.69045150395570       -0.57649011225475
C           46.38417155300997        2.67757729337174       -0.78816469392907
C           47.65638632827500        3.31699109098311       -0.96940176440113
C           48.61103769031585        2.39342632293033       -0.68727121488321
N           46.58942070000385        1.37726163510998       -0.41120311724221
C           47.93402498856540        1.17847136704924       -0.34595188365107
C           48.57620716452383       -0.03291951276167       -0.01894369256971
C           47.92372239873343       -1.23911424106291        0.30813338973742
C           48.58814935370776       -2.48034550661515        0.56964794839703
C           47.62591945381619       -3.39638860238029        0.85193648805947
C           46.36257173617193       -2.72014485039836        0.77012565523474
N           46.57895103397029       -1.41414459706018        0.42047348037207
C           45.11417940103401       -3.30974734147296        1.00108300199388
C           45.10909767923310       -4.72426244443798        1.44673575042726
C           44.46173488692517       -5.70889131528210        0.69632781312442
C           44.46046326047036       -7.02991936854852        1.10835457986271
C           45.10895801557075       -7.39623981356362        2.29027787524352
N           45.06872159128250       -8.70859476095160        2.73140975098297
C           45.74815099072931       -6.41609288367205        3.05345583212152
C           45.75210988337924       -5.09911265469018        2.62912580871642
C           43.87164825809952       -2.68203209578082        0.85258319568223
C           42.60501570793478       -3.28010496972997        1.16270609246460
C           41.64926831808233       -2.36048986789914        0.87276498476283
C           42.31730226398756       -1.18990849832820        0.39184989210877
N           43.66187458783767       -1.40517379713657        0.40217267797087
H           40.59745678922781        2.53544569290612       -0.79755244498483
H           42.49143902132302        4.34844776138628       -1.31667305269839
H           44.22201491200242        4.33507266772526       -3.32198378041082
H           44.22361570289848        6.70334408534438       -4.01104031007286
H           45.07035381027037        8.89355264920977       -3.56197439247062
H           45.79358119408310        9.31605935987927       -2.09785771181810
H           46.07037978744174        7.77764589915159       -0.29005110963907
H           46.06093123566368        5.40852264100508        0.39430970861319
H           47.80189259201237        4.33811554134715       -1.28326104303654
H           49.68114857240989        2.52047322470752       -0.70842951126203
H           49.65437724144644       -2.63285267338207        0.52578253542444
H           47.75990764267618       -4.44233872128406        1.07657544778958
H           43.97143489958432       -5.43596054729863       -0.23182639706947
H           43.95968821925273       -7.78602377567903        0.51340054447875
H           45.80286107858819       -8.96349905374562        3.37259323008895
H           44.90201232920525       -9.39366295355689        2.01174683582824
H           46.24167072651728       -6.69225185664327        3.97898898768094
H           46.24274439550953       -4.34253099794419        3.23183896326495
H           42.46378168653571       -4.26882173789976        1.56842127251996
H           40.58363901836044       -2.45948508159660        0.98977241570720
