118
 energy: -212.573312602593 gnorm: 0.000598940381 xtb: 6.5.1 (b24c23e)
Ni          17.44913731292946        0.09658832451791        0.01114531763303
C           14.04452053504892        0.17697849936587        0.00718842274467
C           14.70848856627959        1.00241436537035        0.88961179919525
C           14.04256394105136        1.88244427961116        1.80054404902306
C           15.01093220896547        2.52551932229674        2.49503784837356
C           16.26263903579564        2.03763890679499        2.00233301456220
N           16.07297324366258        1.10249294212315        1.02309163275088
C           17.49769159396665        2.48957322237893        2.46795572004277
C           17.51806962548232        3.47527319258387        3.47920992502266
C           17.53154091743534        4.32643602583842        4.34368386004976
C           17.54354348403524        5.32367858190003        5.34606405636958
C           18.74301674254651        5.88465546221954        5.79936055197837
C           18.69804759151285        6.86202920485931        6.77768973536750
N           17.56326135447605        7.30027480074748        7.31667948052859
C           16.41872120662656        6.77054253543526        6.89243981627836
C           16.35438563371893        5.78960568077293        5.91898162105452
C           18.71213692414907        2.01683679956608        1.97012466903719
C           19.97928906668377        2.48206789137324        2.43725938170918
C           20.92242805462204        1.80412174738334        1.73919632685387
N           18.86915959552252        1.06508922493439        0.99526810051441
C           20.22574000412197        0.93019374689876        0.85006224792598
C           20.87317131539601        0.05042910507759       -0.01894862157262
C           20.18703613248450       -0.81899739143312       -0.86846240449887
C           20.84420680783583       -1.72172419241184       -1.75894095963383
C           19.87093547314370       -2.39325343251310       -2.42088818689061
C           18.62516913731975       -1.89136908551517       -1.93455907107462
N           18.82499145281222       -0.92559073415984       -0.98169126344310
C           17.38964494841625       -2.33899603981991       -2.40303435070321
C           17.36799919886777       -3.35079687101774       -3.38809227880826
C           17.35515631894150       -4.22545577103352       -4.22879095593459
C           17.33997075037172       -5.24860007831323       -5.20462543203083
C           18.52499287835191       -5.85172039684118       -5.64184642049057
C           18.45563158182917       -6.85242066919538       -6.59471187957250
N           17.31020553667220       -7.27512972666183       -7.12365137282423
C           16.17943117352835       -6.70567563694083       -6.71436996388191
C           16.13960706472332       -5.69867727931573       -5.76645357317514
C           16.17630286173575       -1.82740152737651       -1.94238589524650
C           14.90397341249334       -2.26416966124294       -2.43004757232656
C           13.96609717665390       -1.55340394937868       -1.76006378615131
C           14.67109576982760       -0.68922281268603       -0.86345426678127
N           16.02943231117726       -0.86149201526418       -0.98581249490202
H           12.96104954010555        0.20557506375010        0.00264346360245
H           12.97175636187680        1.97956541168883        1.88265519574094
H           14.90740534442298        3.26657482739041        3.27133554072719
H           19.69006942407847        5.55748516424498        5.38747087834165
H           19.61338989260784        7.31567058156514        7.14677595241746
H           15.51170975063299        7.15055568167692        7.35374724986038
H           15.40020304317285        5.38598126644145        5.60243889764305
H           20.11309093297291        3.22971126564741        3.20228359494536
H           21.99528047668975        1.87450251930499        1.81428112446232
H           21.91325063904413       -1.81607856855613       -1.85806640543803
H           19.97143343250688       -3.15671661691354       -3.17532459271355
H           19.47984378485134       -5.53829358820659       -5.23732251957623
H           19.35923691034975       -7.33861737461092       -6.95107089221858
H           15.26323518049479       -7.07404978321780       -7.16685544826747
H           15.19589749653545       -5.26285630141337       -5.46145203966000
H           14.76707965058222       -3.01798348124699       -3.18870058566817
H           12.89220465795647       -1.59709206868227       -1.84755855313494
Ni          28.33414233460937       -0.06067905730603       -0.07242825069737
C           31.73837589790248       -0.09691411355202       -0.15581615351013
C           31.07398627282697       -1.27844425338497       -0.40762425417628
C           31.73934689978874       -2.51240432071820       -0.69444691091451
C           30.77063685039941       -3.43925899423275       -0.88453327261078
C           29.51921276377736       -2.76582188175743       -0.71702230019970
N           29.70944576026482       -1.44480795298160       -0.42032897014708
C           28.28394508831277       -3.39768356966201       -0.86362069355213
C           28.26380537731399       -4.77163163002877       -1.18997569485910
C           28.25489911152470       -5.94998327486761       -1.47878698493648
C           28.24618553327608       -7.32183943653296       -1.82131896098910
C           27.04882976934204       -7.99953998142870       -2.07823510539942
C           27.09693598377594       -9.34054791897450       -2.41554648877423
N           28.23287000633614      -10.02709300210706       -2.50832427615186
C           29.37542906064093       -9.39024253495756       -2.26427478415776
C           29.43660369335409       -8.05147793686574       -1.92084712498970
C           27.06973031797499       -2.72722092113373       -0.71486675857651
C           25.80232954176391       -3.36610936477163       -0.87546650982502
C           24.85963397204437       -2.41782831992285       -0.65516274319966
N           26.91332188503786       -1.40155742451802       -0.40021326285064
C           25.55688454957919       -1.20647393149761       -0.36148227637705
C           24.91002935040513       -0.00902148418308       -0.05155422618133
C           25.59669188231734        1.16528411476278        0.26129208025225
C           24.94005373687692        2.39217627429944        0.58274512372459
C           25.91370163761098        3.30418816080374        0.82067484307713
C           27.15918064738261        2.62956339215254        0.63627672573959
N           26.95879401768574        1.31674428466027        0.29422231300514
C           28.39490549832607        3.26152246715019        0.77745070886568
C           28.41737327066350        4.62609013564049        1.14077967361657
C           28.43154743381508        5.79643835826525        1.46024064176079
C           28.44792925078650        7.15943202636509        1.83613749254861
C           27.26407445223262        7.84351762699611        2.13569677507258
C           27.33438647717430        9.17559988965585        2.50279934212316
N           28.47968770173908        9.84781531492878        2.58576951763097
C           29.60935710066020        9.20489241827293        2.30128086088522
C           29.64818099503062        7.87390408397107        1.92557417099567
C           29.60786939694093        2.60435701389516        0.57004480042080
C           30.88033090443794        3.24759241757187        0.69034737313693
C           31.81771669572984        2.30819264302993        0.42101564506059
C           31.11228989808470        1.09486065853916        0.14189633639663
N           29.75418526680603        1.28768855419330        0.23158877685385
H           32.82175909627921       -0.10733171999787       -0.18605234700805
H           32.81004793791686       -2.63258558095826       -0.73874287464380
H           30.87373028853822       -4.48643473970106       -1.11967095826817
H           26.10101170209986       -7.47880471689551       -2.01452684352868
H           26.18326278332554       -9.89073198214721       -2.62137217646662
H           30.28343110122782       -9.98043101307930       -2.34847154932861
H           30.38931557769228       -7.57196983626594       -1.73108860322861
H           25.66806445681049       -4.40674406510117       -1.12291766380744
H           23.78672977267066       -2.51738171611957       -0.67909263963907
H           23.87107297057423        2.52578377834365        0.61438510927453
H           25.81364810210233        4.34284424993587        1.09146073962661
H           26.30938844833858        7.33438978723275        2.08113243679002
H           26.43169788417773        9.73046741032281        2.74188041388759
H           30.52546886259923        9.78337787847305        2.37843035266660
H           30.59102747499598        7.38906437807444        1.70301433778237
H           31.01766939202095        4.28564730315613        0.94745318951437
H           32.89155405654073        2.40604181360810        0.41025788808002
C           22.28395635774198        0.03324554668949       -0.03411948679180
C           23.49925398999144        0.01355810464858       -0.04529521113865
