130
 energy: -241.547139316633 gnorm: 0.000990233114 xtb: 6.5.1 (b24c23e)
Zn          16.42229996019786       -0.05556324988630        0.02775910151976
C           13.01323421416637       -0.12483361102647        0.04882578514624
C           13.64036198620275       -0.17074431134231        1.28789882902112
C           12.96310567093338       -0.20757091825354        2.55388687273378
C           13.91942336275664       -0.22353366187929        3.51538535407949
C           15.19423596680002       -0.20745093851101        2.84724203637832
N           14.98940264717474       -0.16834385184862        1.49933678552744
C           16.44415209293050       -0.19774365942405        3.47866712851654
C           17.68494307553972       -0.14151957629988        2.83417888892012
C           18.96314938645814       -0.18851763489823        3.48898144256857
C           19.91143718228552       -0.13311791117695        2.51937792074836
N           17.88127389713530       -0.07046155108507        1.48101538074004
C           19.22375510929904       -0.05913587412660        1.26385954776060
C           19.85786781561626        0.00314532084162        0.00638644026986
C           19.20664135097752        0.05171294094574       -1.24275117622223
C           19.87700081372616        0.08719269941199       -2.50931245888334
C           18.91530098564177        0.11671923011635       -3.46688094796548
C           17.64620556586612        0.10767988005734       -2.79285023474029
C           16.39615795859250        0.11024441620675       -3.42205185381955
C           16.38155457347007        0.18250283596878       -4.90332886959792
C           15.82603157347975       -0.85591395479234       -5.65602735970363
C           15.80774613003140       -0.78615104596070       -7.03667169365569
C           16.34038659930511        0.32579805190437       -7.69211846252341
C           16.29242222290804        0.35724603424299       -9.17284031609867
O           16.82243171193975        1.46981263316755       -9.70449789604313
O           15.82556261329554       -0.51732198710770       -9.85792587887250
C           16.89610660015398        1.36557174491529       -6.94575643109536
C           16.91769556499204        1.29084471832617       -5.56403202761438
C           15.15516048497108        0.04937063044690       -2.77567578587184
C           13.87107257137670        0.09894615834176       -3.42428973802705
C           12.92822206475251        0.02905182068901       -2.45190001252118
C           13.62306732010089       -0.05349621136396       -1.19768656570578
N           14.96907487273484       -0.03410897975338       -1.42715911545023
N           17.86123062643937        0.06026427015307       -1.44145005540020
C           16.45245232010907       -0.24918413985667        4.96098728056407
C           15.91798402049496       -1.35037060322233        5.63525225965980
C           15.92406072473995       -1.39388617933390        7.01712819745963
C           16.45993484290798       -0.33466072508163        7.75230410726306
C           16.43865180315612       -0.42472046965465        9.23128011225274
O           16.96706170864952        0.64674436031603        9.84265254087895
O           15.99365313404804       -1.35765692519684        9.85062045516174
C           16.99424308722292        0.76768429011571        7.08432994288277
C           16.99184365944171        0.80621232990672        5.70106592192274
H           11.92768792200094       -0.13366147948320        0.05605919834811
H           11.89169886419420       -0.21217197689503        2.67905061216309
H           13.77855836103224       -0.23295863337515        4.58431332674076
H           19.11429042645344       -0.26868144480928        4.55341009591217
H           20.98331076634332       -0.14753652943389        2.63616608911330
H           20.94727926497712        0.08242655395339       -2.64135139127196
H           19.05169728584598        0.12932228136888       -4.53622982265198
H           15.42268964618978       -1.72565698269747       -5.14984786817607
H           15.38223888690875       -1.59079548888438       -7.62626022531401
H           16.74992759656469        1.41215137696225      -10.67104334170488
H           17.30796499252280        2.23178563478914       -7.45000120482341
H           17.33742868564639        2.10522932414474       -4.98427176459414
H           13.71524472787888        0.18944493888405       -4.48734345292737
H           11.85515420295850        0.03958956625795       -2.56167664610987
H           15.51219964825837       -2.17928578120308        5.06656030017748
H           15.51551968346656       -2.24773961067927        7.54609454684281
H           16.91381466162057        0.50941985840988       10.80239573859400
H           17.40879629624753        1.59329976444716        7.65067280686722
H           17.39551115245636        1.66848707362283        5.18256014025979
Zn          32.46980450633640       -0.05193230015419       -0.03371008083760
C           35.87883403621665       -0.11859287340311       -0.06298423716588
C           35.25166657259855       -0.02306576402848       -1.29919010323227
C           35.92876357324317        0.08357029578292       -2.56129861476345
C           34.97231756620941        0.17830914553816       -3.51812124058470
C           33.69763408608169        0.12016361319368       -2.85212507920905
N           33.90264123722642        0.00490488602339       -1.50862473476437
C           32.44777843501091        0.20467125917985       -3.47787493780323
C           31.20710303247207        0.18820508180583       -2.83116221014288
C           29.92893722234481        0.22005247931905       -3.48685776347925
C           28.98059281805921        0.16310186211894       -2.51738275419505
N           31.01070667723070        0.10153456419160       -1.47890086960430
C           29.66824501627763        0.08952875264965       -1.26180562322487
C           29.03431725947004        0.00542896630647       -0.00548499277992
C           29.68568943002079       -0.09246600348899        1.24063556171549
C           29.01527275890562       -0.20604065248961        2.50250802309184
C           29.97690088548663       -0.28746828942966        3.45713694749251
C           31.24605084496261       -0.21634937656316        2.78687676130140
C           32.49618218514581       -0.28474865805014        3.41238317847678
C           32.51094314737249       -0.38383778512366        4.89195051914561
C           33.07387041027346       -1.49841980577832        5.51996227008192
C           33.09274130572944       -1.58832064151553        6.89940713126529
C           32.55298894524388       -0.56319700309718        7.67880701026866
C           32.60282232024983       -0.70211816679179        9.15326231307553
O           32.06431895313926        0.33732980137634        9.80984055492385
O           33.07600486213630       -1.64671538329242        9.73278154612829
C           31.98942720622818        0.55176334198818        7.05736155840232
C           31.96769421245213        0.63706242761369        5.67624531322909
C           33.73719469180120       -0.26904917345790        2.76318224841281
C           35.02144323779702       -0.29199878565612        3.41303589791137
C           35.96412109221276       -0.24976608034964        2.43890796055082
C           35.26906965338960       -0.18968803377775        1.18355495559206
N           33.92306240061101       -0.19775107731950        1.41393874972999
N           31.03108659466569       -0.10641309796569        1.43913772821487
C           32.43938855503004        0.32452871275104       -4.95639890301156
C           32.96619780509955       -0.69536192356030       -5.75330809306196
C           32.95941386208488       -0.57956318746885       -7.13102509049504
C           32.43111677099694        0.56109466181372       -7.73884081539504
C           32.45229559758921        0.64209805958302       -9.21834606715908
O           31.93271470743179        1.78116799023080       -9.70175114035219
O           32.88859798909717       -0.21757846060832       -9.94147568507770
C           31.90473167785904        1.58296296805911       -6.94795143424930
C           31.90736542727063        1.46183693152804       -5.56943929331309
H           36.96437880593930       -0.12662448676397       -0.07120817153800
H           37.00015688566485        0.09178167290566       -2.68642452088805
H           35.11284895134329        0.28996639400598       -4.58127163228964
H           29.77801145124861        0.26534699370229       -4.55335152023493
H           27.90872169233709        0.16399006622593       -2.63497149508165
H           27.94500297918260       -0.22720166501642        2.63295971427679
H           29.84025186087112       -0.40019403590628        4.52055960790016
H           33.48253046166219       -2.30130419630369        4.91689390892215
H           33.52460582639239       -2.45246745022398        7.39218264523286
H           32.13778191869181        0.16884605941460       10.76324678452308
H           31.57180131791664        1.35099719116953        7.65817165345508
H           31.54230077535126        1.51023078485217        5.19447367822769
H           35.17768647027464       -0.32251423293017        4.47942809754830
H           37.03720183658094       -0.25061601875670        2.54909979754458
H           33.36654982919083       -1.58682039148884       -5.28407566797399
H           33.36191266495807       -1.36963245449120       -7.75517186900571
H           31.98462027956397        1.75471169267787      -10.67101482460319
H           31.49612016967316        2.47120638053916       -7.41511774085118
H           31.50954251771036        2.26130562186253       -4.95467752679169
C           25.06026790997603        0.00743597474532       -0.00255150878787
C           23.83189964357666        0.00895696167435       -0.00260601063601
C           22.48740147848700        0.00925048321225       -0.00070906876610
C           21.26337882608880        0.00765644576814       -0.00086961945803
C           26.40476534480818        0.00874374986317        0.00416694995090
C           27.62878958642412        0.00869134775120        0.00343728284496
