300
 energy: -520.586201353626 gnorm: 0.000629741720 xtb: 6.5.1 (b24c23e)
C           69.60686107847062        0.03397285192063       -0.12951715291300
C           70.22710931105405        0.82517824489497       -1.08968153438336
C           69.59589805698228        1.63919190419624       -2.07009678469231
C           70.57614311828206        2.24450461972893       -2.80783147265920
C           71.83191558101514        1.81572831273014       -2.29995568979937
N           71.57599791884698        0.96455266952952       -1.26805106902203
C           73.10719429333814        2.18449280616144       -2.76393397134570
C           73.14645255008685        3.09176623737801       -3.84598215194697
C           73.17335264116984        3.87744277818435       -4.77041589772196
C           73.21041929773196        4.79398046877933       -5.84587873992862
C           72.03411088687140        5.32287419952227       -6.39015495337084
C           72.12527926731769        6.21817017771755       -7.44096558775028
N           73.28390531130340        6.60682599360887       -7.96709209658986
C           74.40668395469346        6.10878280422274       -7.45507866764398
C           74.42498509892113        5.20863516483612       -6.40477408805380
C           74.32773863609783        1.72966932750746       -2.23862405546229
C           75.61835343600741        2.13438777520463       -2.76008892451168
C           76.54573400677539        1.50944001407078       -2.00444991992431
N           74.48350073510143        0.87968232758036       -1.19477606629032
C           75.81659410898608        0.72748482272928       -1.02436395445327
C           76.44938943986419       -0.04373027651174       -0.03289384922606
C           75.80529748927826       -0.80771656536471        0.95824405016630
C           76.42945862740886       -1.60127059231298        1.95573424241550
C           75.44499144783947       -2.20193941565210        2.69329162487637
C           74.19381142804545       -1.79169539133157        2.16413644073231
N           74.45781662734299       -0.94925772733472        1.12234221810131
C           72.91954248621818       -2.18036870909528        2.61368562900830
C           72.87750394884614       -3.08031421156505        3.70045033379875
C           72.83946055033098       -3.86071037464533        4.62931707363941
C           72.79264215686545       -4.77305428342188        5.70762218371215
C           73.96476385457298       -5.26285060823664        6.29610188534953
C           73.86414534397926       -6.15720785348390        7.34673843932719
N           72.70007150591886       -6.58072028645407        7.83279872604970
C           71.58128743805749       -6.11939697220561        7.27935845913257
C           71.57232643596819       -5.22334731669172        6.22540617216824
C           71.69827168664396       -1.74969749966295        2.06479041299595
C           70.40086457400862       -2.17338606574246        2.56226180988843
C           69.47985435942059       -1.55382709370396        1.79643146057281
C           70.21775127379961       -0.75520608755635        0.83317850280609
N           71.55563465204507       -0.90109773493303        1.02744745669183
H           68.52170174582041        0.04222857683747       -0.14191059534829
H           68.52873007949248        1.74115193751571       -2.18596091526905
H           70.45103914000313        2.92725285716602       -3.63293721609698
H           72.28615415844617        0.50077771065207       -0.71147337086084
H           71.06890880097036        5.03415488389352       -5.99140707442093
H           71.22871433116771        6.64460910450007       -7.88189924882345
H           75.33408823921852        6.44704156120136       -7.90826376902912
H           75.36261453012321        4.82823724477138       -6.01804252180231
H           75.76536629539434        2.80606237174275       -3.59076417373281
H           77.62021556738763        1.56180880887756       -2.07781827026998
H           77.49526874367254       -1.69937901186210        2.08387986969605
H           75.56693357840108       -2.87205798933250        3.52898268003676
H           73.75107342172223       -0.50115954180312        0.54852265350870
H           74.93387607903254       -4.94460190456468        5.93113951960622
H           74.75717248876558       -6.55363626853166        7.82135325579297
H           70.64926842863208       -6.48558053834155        7.70024877038876
H           70.63747537648274       -4.87364900646280        5.80430738393530
H           70.24894590350173       -2.85192005218779        3.38663943310506
H           68.40410039589136       -1.61072239471395        1.85157568843219
C          120.24573416101724       -0.13723358454644        0.04680377021350
C          119.64553159011528       -0.82049294107110        1.09823626917012
C          120.29708324215747       -1.51600544419736        2.15365614237978
C          119.33216061924342       -2.04485591836725        2.96655156588264
C          118.06592131240204       -1.68649450832118        2.43084501533232
N          118.30040112730319       -0.95088852816878        1.30900315766314
C          116.80036674241310       -2.02186667409560        2.94439835310852
C          116.78461824186252       -2.80167153935100        4.12217159295133
C          116.77708351611113       -3.47320947710743        5.13292851880506
C          116.76011268419161       -4.25536872101939        6.31023549651179
C          117.94771775116462       -4.64669822921182        6.93974698005361
C          117.87592571223415       -5.41278891993789        8.08949091304370
N          116.72572299735407       -5.80156328020783        8.63397134212444
C          115.59235762883915       -5.43369177838925        8.04159017042773
C          115.55459351196809       -4.66828466897899        6.88977679103203
C          115.56807685378737       -1.64908494780692        2.38319694395895
C          114.28973383106313       -2.03204129685111        2.94904302033558
C          113.34473159310049       -1.49827707184053        2.14676389228329
N          115.38754866974602       -0.90266759241388        1.26636648801008
C          114.05048231310501       -0.79024554298555        1.09636601079001
C          113.39483091259244       -0.10723422666054        0.05540020669357
C          114.02019600425427        0.57781392971102       -1.00405115458207
C          113.37736355766521        1.28958590156561       -2.04990370363782
C          114.34709476627157        1.81588857766350       -2.86011989174390
C          115.60803238636501        1.44150628208058       -2.32796023515565
N          115.36416752823770        0.69642136334666       -1.20969724982332
C          116.87241131112307        1.77344550595462       -2.84581500103307
C          116.89031144152956        2.55560115275103       -4.02083453858155
C          116.90462466678025        3.23072005230988       -5.02938211179566
C          116.92903327833275        4.01852850217846       -6.20241696107827
C          115.74554775891814        4.45533473816052       -6.80947187557192
C          115.82512676944526        5.22646367294729       -7.95533004950607
N          116.97899709689034        5.57819625521522       -8.51694471761892
C          118.10851125534735        5.16661192678470       -7.94625582436230
C          118.13856495752573        4.39297127162715       -6.79986492752818
C          118.10575175271238        1.39459891442209       -2.28604633903040
C          119.39145785259346        1.75987211414443       -2.85501658664578
C          120.32974507320635        1.22659854741569       -2.04636343664373
C          119.61397135353012        0.53801640429006       -0.98643544195458
N          118.27194224201229        0.66172265911095       -1.16724916895103
H          121.33096734403654       -0.13874446163279        0.04237931761051
H          121.36658685568534       -1.59541766188526        2.26551170146294
H          119.47437076760004       -2.63235927073253        3.85942668645662
H          117.57937830249264       -0.55693095012073        0.71393933012763
H          118.90638231264653       -4.35225796725809        6.53006619671959
H          118.78146118943930       -5.73054137954122        8.59830734914772
H          114.67227674560785       -5.76812337397544        8.51220896514490
H          114.60877107015656       -4.39108686410759        6.44009580933657
H          114.16182892684812       -2.62992844628586        3.83726062957906
H          112.27234113804849       -1.56885558051742        2.23214058218008
H          112.30973522261455        1.38799297206689       -2.15947617388917
H          114.20899102934423        2.41327187305387       -3.74687215492757
H          116.08179713651420        0.29347007644961       -0.61625236603277
H          114.78408649459796        4.19200342623024       -6.38530371853942
H          114.92287578274212        5.57929942704394       -8.44660574002287
H          119.03168954637384        5.47155806877203       -8.43064327504054
H          119.08142478521734        4.07981288841110       -6.36801896023695
H          119.52463792378276        2.34464356668991       -3.75134896905362
H          121.40395303230072        1.27645152604088       -2.13070417696187
C           77.85971038050681       -0.06189668523049       -0.01842460572202
C           79.07575203830382       -0.08206097615649       -0.00154090091338
C           88.82316293226533       -0.15643434325494        0.03710927521267
C           90.04080883719293       -0.15478385753469        0.04731056098185
C           99.80049041476666       -0.09993412124597        0.06939791364687
C          101.01796897443177       -0.09088381473246        0.07145453712295
C          110.76819691616930       -0.09319999632196        0.05739239871964
C          111.98499016806690       -0.10034000898567        0.05977278587247
C           80.48537166471891       -0.09968178868311        0.00458822618716
C           81.11957679571614       -0.03629198556008       -1.25073017889450
C           80.49005456117042        0.01839840916968       -2.52013081699880
C           81.47176284294771        0.04168732138273       -3.47486540120847
C           82.72451965042302        0.00177106037686       -2.81109558749128
N           82.46638543838618       -0.04315050373412       -1.47178625196772
C           83.99558834610384        0.01261375148014       -3.41501989199123
C           84.01412624509298        0.04987170888521       -4.82737261872709
C           84.02401144301923        0.06871533953132       -6.04075836120218
C           84.04199981002951        0.08389587362605       -7.45405988845619
C           85.24761176099481        0.12612565206290       -8.16420757699381
C           85.21062474028734        0.13494644503240       -9.54710467570850
N           84.07794124452175        0.10454314079410      -10.24477257871610
C           82.92770659659881        0.06430181514983       -9.57716649453868
C           82.85511750896563        0.05272564101648       -8.19562747575593
C           85.22876420342095       -0.01210907503524       -2.74554561655679
C           86.50315819499421        0.03897379575998       -3.43419835973878
C           87.45323092488897       -0.00046401447682       -2.47655075300698
N           85.41698013868417       -0.08271015393604       -1.40490654954119
C           86.75532505913063       -0.08434633804225       -1.20926658084461
C           87.41473487741706       -0.15446464147132        0.03241585717742
C           86.77729598723498       -0.22260221554350        1.28742721109585
C           87.40295357975440       -0.31744633739306        2.55594760707945
C           86.42016741108543       -0.35363708803389        3.50885681772887
C           85.16891449243990       -0.28765683465865        2.84473705595623
N           85.43014342835231       -0.21315398967563        1.50668754262199
C           83.89873321448859       -0.29561298887884        3.45025593291185
C           83.88264235020843       -0.34321837065399        4.86219511552731
C           83.87706141752039       -0.37019307890703        6.07548767093045
C           83.86611934564489       -0.39703091334204        7.48861486324441
C           82.66400609698296       -0.39766364202126        8.20586150590218
C           82.70884960973534       -0.42098401331611        9.58839355648042
N           83.84592328221545       -0.44304689917568       10.27913039096801
C           84.99296840436713       -0.44245631633419        9.60470404984882
C           85.05775436210308       -0.42018449097180        8.22298934869790
C           82.66446410758381       -0.25575069970065        2.78277344366834
C           81.38885744475141       -0.27207712647696        3.47183113985108
C           80.43923995328758       -0.22418356506091        2.51387836269107
C           81.14012380160261       -0.17811774963077        1.24587494761359
N           82.47878093407262       -0.19924564283874        1.44233107465329
H           79.42372552942152        0.03254373395435       -2.67685045562322
H           81.34568850505565        0.08218911356021       -4.54475373861974
H           83.17179242133020       -0.08445915437733       -0.74374305825225
H           86.19275584999544        0.15143097576583       -7.63541199026062
H           86.13064869451433        0.16762164596913      -10.12361148970803
H           82.02280115132692        0.03981780861213      -10.17752905574238
H           81.89651156680610        0.01882607543583       -7.69206635155182
H           86.62566424629905        0.10229940178864       -4.50361934797815
H           88.52438017995476        0.02960718921302       -2.59158140561581
H           88.46782192436255       -0.35903557811110        2.71430249690079
H           86.54477403040519       -0.42361682443035        4.57737272488155
H           84.72599096576941       -0.15835321549083        0.77829493516750
H           81.71545087864141       -0.37958847780828        7.68294890301092
H           81.79164586304162       -0.42186476442318       10.17024731610508
H           85.90164081128745       -0.46039877824779       10.19955995716177
H           86.01391815901998       -0.42005916348115        7.71364539825960
H           81.26584311296497       -0.31382242186133        4.54227361759849
H           79.36705676191103       -0.21407944456017        2.62788640385304
C           91.44911826721102       -0.15137525743225        0.05143920433469
C           92.08733114069160       -0.53376464896671       -1.14546976237371
C           91.46347858459700       -0.94932405630395       -2.34841368686177
C           92.44772863449440       -1.22506761135678       -3.25991104638330
C           93.69775051089096       -0.98932034944045       -2.63345194096814
N           93.43476477345918       -0.57620558117833       -1.35917312748690
C           94.96893375633573       -1.15578354218007       -3.21383654319342
C           94.98748847901275       -1.57731992666733       -4.56239152306740
C           94.99944423837444       -1.93061477544129       -5.72334908532753
C           95.02184487186658       -2.34203428035023       -7.07544409498855
C           96.23015669673561       -2.51220764177626       -7.76167153955706
C           96.19828653045001       -2.91456323484156       -9.08487246611762
N           95.06808391311252       -3.15102709908626       -9.74620817497264
C           93.91538925909725       -2.99193438303757       -9.10092485188156
C           93.83766054347390       -2.59276654973791       -7.77851023964017
C           96.20322077306848       -0.94695390031850       -2.57952314340810
C           97.47668670856743       -1.16408075362249       -3.23715438373924
C           98.42850773779706       -0.87685467075264       -2.32453699281419
N           96.39336887538077       -0.53686353065578       -1.30183691283636
C           97.73215047683304       -0.48125808352949       -1.11682149949895
C           98.39224481633201       -0.10964147414623        0.06919102624497
C           97.75513220932974        0.25602175075849        1.27159165146211
C           98.37988953678209        0.65319640853631        2.48035854564097
C           97.39570019312627        0.92463791422290        3.39329949750492
C           96.14512875539205        0.70479621545357        2.76194121446197
N           96.40767523383866        0.30326187177609        1.48394226758793
C           94.87359825628363        0.88003172489825        3.33909000592920
C           94.85548332861364        1.29429515730861        4.68995636216839
C           94.84503914539739        1.64402498508244        5.85200136853326
C           94.82919668611646        2.04949076252296        7.20601435747986
C           93.62467522697384        2.25205816037252        7.88992159509573
C           93.66497759360669        2.64814282250251        9.21487339502924
N           94.79980723265221        2.84862429083433        9.88005145549041
C           95.94910629352678        2.65790562199864        9.23714366257089
C           96.01841393268032        2.26225843925952        7.91330020881812
C           93.63937717566682        0.68699031970615        2.69951939700326
C           92.36637175562579        0.92083612807205        3.35215156264538
C           91.41435714501519        0.64009238597719        2.43770227596494
C           92.10969662052452        0.23010813771559        1.23436044535828
N           93.44855736841437        0.27443258970957        1.42261511834869
H           90.39898241544411       -1.03282842551559       -2.49184676090469
H           92.32467698964722       -1.56525402841856       -4.27542747578218
H           94.13713936913834       -0.33562827778389       -0.66763186935376
H           97.17332642412164       -2.33028677930095       -7.26084383144506
H           97.12039618443822       -3.05403515007498       -9.64173241583965
H           93.01263139592703       -3.19328413226714       -9.67033687130506
H           92.87714745611655       -2.47505877894191       -7.29145318100935
H           97.59740044652010       -1.49550078426747       -4.25608864841243
H           99.49976083444741       -0.92878273132687       -2.43162719776173
H           99.44490111282408        0.72688663269190        2.62638897955740
H           97.51928326276558        1.25243873944905        4.41282617369776
H           95.70505820090676        0.07418131767104        0.78877062345310
H           92.67768135310715        2.09995218815840        7.38633061429905
H           92.74583585836325        2.81264500465395        9.76986909670152
H           96.85589387044809        2.83017762041756        9.80974153478930
H           96.97626526308335        2.11819771311374        7.42804160657670
H           92.24602757348249        1.25845708452001        4.36909373370330
H           90.34353469136339        0.70455780283441        2.54127202816943
C          102.42632055573598       -0.08415973720639        0.06880147871036
C          103.05605813561860        0.04777628953711       -1.18477772073529
C          102.42305141763742        0.19984065989283       -2.44404342993503
C          103.40090722819379        0.28844690728737       -3.39875564309719
C          104.65587732265381        0.19740843790011       -2.74471007898990
N          104.40204571538418        0.05657167764422       -1.41072277442440
C          105.92322213455763        0.23662261640015       -3.35501511033343
C          105.93237483831376        0.36080641827789       -4.76243128683009
C          105.93392754299238        0.46316406388010       -5.97169533478472
C          105.93567031545794        0.58109743990796       -7.38025462750188
C          107.13259093897324        0.65337240908068       -8.10243985210113
C          107.07797281942753        0.76649203152035       -9.48020675489583
N          105.93609649916411        0.81019111247290      -10.16188935944482
C          104.79392814192867        0.74209963909831       -9.48272703537582
C          104.73892738394282        0.62819687068906       -8.10507295576899
C          107.16071553937506        0.16061216856846       -2.69696720126145
C          108.43155432442771        0.19223084664191       -3.39386690490541
C          109.38698915653549        0.10322248095918       -2.44477960201592
N          107.35534384774745        0.05374034010892       -1.36044972176709
C          108.69501028696943        0.02119375325841       -1.17389063396844
C          109.35908920103998       -0.08590822030961        0.06125668244539
C          108.73082313484169       -0.18868888395713        1.31760029589732
C          109.36536729986186       -0.27179712926792        2.58274293377893
C          108.38788244514902       -0.35039868834143        3.53888496390197
C          107.13232852846809       -0.31495461414361        2.88045376272565
N          107.38490968450928       -0.21466037783434        1.54289455799172
C          105.86438923633550       -0.38104903745189        3.48744332319440
C          105.85159973340967       -0.49744505340394        4.89552410388389
C          105.84203902122732       -0.59083609408951        6.10547633485253
C          105.82152396606295       -0.69902855826515        7.51464589113077
C          104.61423319262046       -0.80047821435867        8.21604485588866
C          104.64715342634489       -0.90260367412769        9.59528124768381
N          105.77745016076260       -0.90902186528378       10.29741523653631
C          106.92922950141885       -0.81299038973875        9.63812865290761
C          107.00585688918993       -0.70712890502819        8.26081802133480
C          104.62752784939161       -0.34281559488955        2.82531280558684
C          103.35721911008748       -0.44383955889720        3.51637573169216
C          102.40160596070490       -0.36417343559083        2.56676473498552
C          103.09231754811357       -0.20900723512262        1.30223771056385
N          104.43168567360782       -0.20634143880330        1.49112796438639
H          101.35701972588194        0.24170147545338       -2.59505377511510
H          103.27040442311309        0.40884425415630       -4.46207343428760
H          105.10971140789114       -0.02794963073695       -0.68859499114313
H          108.08477303338202        0.62103024179283       -7.58694031580506
H          107.99085751381043        0.82482631420210      -10.06584168143616
H          103.88096814537293        0.78025084729397      -10.07008572000937
H          103.78633144934584        0.57553503577474       -7.59171965390199
H          108.54788186745579        0.26943352138243       -4.46306888787338
H          110.45788016369697        0.08616105941246       -2.56771299903121
H          110.43201630744579       -0.26595405986165        2.73669646135628
H          108.51880195235485       -0.42481059668154        4.60636978625563
H          106.67637572197020       -0.16464283713418        0.81841602776800
H          103.67094360850921       -0.79885883363850        7.68334461800250
H          103.72574695507932       -0.98270028619767       10.16486654028696
H          107.83208119254887       -0.82120314963916       10.24197230515068
H          107.96561515118340       -0.63085629853584        7.76416254577408
H          103.24114848998465       -0.56336228327635        4.58168484493407
H          101.33121942169359       -0.41038239807152        2.68485910760334
