238
 energy: -432.438388245943 gnorm: 0.000793428067 xtb: 6.5.1 (b24c23e)
Ni          29.42626842598121       -0.01642256660138       -0.01188324808536
C           26.03185511285417       -0.05059720830758       -0.02593010124901
C           26.69072736147436       -1.26196646823551       -0.00720759484786
C           26.01779758497764       -2.52483977320471        0.01546641225528
C           26.97692958074524       -3.47358774561560        0.12028108560382
C           28.23627467086638       -2.78889009545540        0.15518708981470
N           28.05088349481440       -1.43226093159467        0.06129614818155
C           29.45460753620056       -3.42433416718886        0.35417691815708
C           29.46668275674931       -4.89856316942978        0.51331013014388
C           29.83159435498926       -5.49319407220773        1.71994371200807
C           29.82404962547783       -6.87571993357758        1.82002472306106
N           29.48730826914946       -7.67294944924954        0.81140260377901
C           29.14059490094752       -7.11325853761885       -0.34307312366860
C           29.11239305507229       -5.74130156618512       -0.53887188457542
C           30.66088941045810       -2.74063474131288        0.41161610606901
C           31.92764881779725       -3.38188716824610        0.59525930555376
C           32.87254666224841       -2.41688126672452        0.49592043243835
N           30.82944178510786       -1.38879159122793        0.21111573316116
C           32.18234457447561       -1.19175722334409        0.24484417317273
C           32.84102535493356        0.01574880103435       -0.00267908152247
C           32.16009891216475        1.21081892323958       -0.24975051663319
C           32.82578239898479        2.44295074594960       -0.53029617836535
C           31.86301404441768        3.39004999900250       -0.63295470197887
C           30.61147888109831        2.73322541783493       -0.40566797482000
N           30.80430164992839        1.38510315215886       -0.20367212435742
C           29.39076917881627        3.39330370582068       -0.37032064343919
C           29.37671616508690        4.86711057572068       -0.52099021961267
C           28.72920522728983        5.47987428034864       -1.59297749956568
C           28.74442867849628        6.86243542494696       -1.69007062331427
N           29.34745801281309        7.64440025801154       -0.80051268748966
C           29.96543074895827        7.06812512661834        0.22542024139110
C           30.00969993148500        5.69460876355865        0.40560636911208
C           28.18227359531722        2.73050307429272       -0.20002327817947
C           26.91258368462466        3.39204874112549       -0.12218015101980
C           25.97142772476618        2.42385748939507       -0.03115695239832
C           26.66711590177584        1.17333063515312       -0.04133069966845
N           28.02347873457563        1.36999926902385       -0.11592725112301
H           24.94815544112731       -0.06107890562070       -0.02359060813963
H           24.94750003635144       -2.64749962828635       -0.03197724798829
H           26.85586959924278       -4.54269615395515        0.18385478875482
H           30.10395999067819       -4.88164633747133        2.57181691473529
H           30.10015219519365       -7.36298325835638        2.75055365256169
H           28.87325258445843       -7.79107757125307       -1.14845971676691
H           28.83234507475574       -5.32871631965668       -1.50076096022487
H           32.06631810830922       -4.43726469887693        0.76333191234373
H           33.94366988743627       -2.51170313959039        0.57174387655992
H           33.89329179203301        2.55257680142434       -0.63262881028160
H           31.97892807012349        4.43954521049559       -0.84851838708899
H           28.23383998963868        4.88145356210872       -2.34826074700029
H           28.25082566344629        7.36274005942489       -2.51809697828249
H           30.44686081375783        7.73355757898891        0.93603971707755
H           30.51641005143179        5.26889044004433        1.26347936213542
H           26.77352721816223        4.46080575884819       -0.13253769620984
H           24.90026740086372        2.52639278849910        0.03907646074821
Ni          85.14822998243429        0.02598049210317       -0.01902167585053
C           88.54344234111939        0.04516251346211       -0.05890966358968
C           87.88657738953817        1.21400204369758       -0.38141948471975
C           88.56226522135115        2.42981073427314       -0.71821348064278
C           87.60521786851284        3.37134845651415       -0.88713913779166
C           86.34441963453585        2.72696660541207       -0.66125568436530
N           86.52684571174065        1.39976772231119       -0.36317018674943
C           85.12633107936210        3.39310090571685       -0.66463232382405
C           85.11661874436702        4.85034035375256       -0.93900102319257
C           84.74289364496160        5.76818198322637        0.04110209961567
C           84.75318075508869        7.12067492504188       -0.26237915428888
N           85.10034855347506        7.59249390895602       -1.45533829112730
C           85.45511877351203        6.72313175172278       -2.39588420060357
C           85.48163895814427        5.35311419338727       -2.18670000670643
C           83.91752963132386        2.75552709569977       -0.42407486178521
C           82.65113997813398        3.42253063399894       -0.45350688425051
C           81.70421049026382        2.47180562076766       -0.27108347554758
N           83.74677595839202        1.40505891917581       -0.21601067407846
C           82.39309757181158        1.22776826342494       -0.13659986035400
C           81.73241215103216        0.00353914793765       -0.00239030718348
C           82.41099350430504       -1.21055140835978        0.13320478541710
C           81.74200335559810       -2.46731061926446        0.24685437506575
C           82.70312518732996       -3.40377371193336        0.43023054638316
C           83.95703880972199       -2.71309795098548        0.43616076488804
N           83.76685493133982       -1.36641779118533        0.22211840077160
C           85.17808089597099       -3.33735632420728        0.65121576176286
C           85.19006204956429       -4.78997739624144        0.94295024109634
C           85.81876525654094       -5.69482745174724        0.08861796360989
C           85.80181658883971       -7.04447574100897        0.40366646175876
N           85.21430382460161       -7.52632879978825        1.49411188846215
C           84.61445110816669       -6.67004436038199        2.31474943604013
C           84.57342389120740       -5.30419061289980        2.08277798828243
C           86.38892196422047       -2.65920831723224        0.60104504609250
C           87.65911820886694       -3.27466471842212        0.85331019327914
C           88.60184357338225       -2.32604685733622        0.64666204632857
C           87.90667243149467       -1.12979239889561        0.28117940950574
N           86.54943050764359       -1.33432693294508        0.28115869259289
H           89.62714925861427        0.05235064141391       -0.06630482714522
H           89.63280708850982        2.53159291190862       -0.79828416932618
H           87.72849277377880        4.41423563016685       -1.12977384676056
H           84.46147013883932        5.42871382535169        1.03076339980164
H           84.47055157183141        7.85600730007244        0.48525340352380
H           85.73070240959713        7.13937057590158       -3.36043256469895
H           85.76860298535985        4.68019923591418       -2.98589562609778
H           82.51441506284272        4.48009090240152       -0.60896935585565
H           80.63271061435874        2.58500857939177       -0.23792812495851
H           80.67362702670037       -2.59945448095516        0.19051799033905
H           82.58460937527551       -4.46869553974508        0.54521798261021
H           86.30091000739561       -5.34812890777070       -0.81763199703284
H           86.28085246875847       -7.76915880281820       -0.24820187392773
H           84.14537753471079       -7.09398583927538        3.19781081972463
H           84.08165191428186       -4.64192534743077        2.78526712427704
H           87.79738165935646       -4.30044148664043        1.15387605548381
H           89.67372682221180       -2.40790697820067        0.73145392341357
C           34.24596271568193        0.02753317904498       -0.00641740156368
C           35.46995970196815        0.03659667427812       -0.00998388979936
C           36.81315031767827        0.04254752042141       -0.01268827676173
C           38.04346531864697        0.04554116563487       -0.01378936108362
C           39.38179041392261        0.04584396869807       -0.01864976352557
C           40.61217125262129        0.04370402865085       -0.02221621432791
C           41.95513532284247        0.03858169911222       -0.02618388770508
C           43.17937675585709        0.03199583941477       -0.03122776747732
C           52.82121350867595        0.02597817535063       -0.02182445393994
C           54.04565186061886        0.02724004591241       -0.01553937498478
C           55.38831928317089        0.02784525276203       -0.01169440782366
C           56.61888585153779        0.02763272294637       -0.01012465332365
C           57.95680334720977        0.02614185526159       -0.01202708116981
C           59.18740807475929        0.02126317646649       -0.01406867155641
C           60.53003883685959        0.01448070857737       -0.01965305590168
C           61.75451347031771        0.01351335025452       -0.02146883529755
C           71.39409411378203       -0.00643019526900       -0.02765463842046
C           72.61855682253973       -0.00739175296372       -0.02046709258834
C           73.96149014107012       -0.00869420827308       -0.02101310562745
C           75.19192590663661       -0.01241104618404       -0.01570725972023
C           76.53008660694314       -0.01403975985735       -0.01127614355780
C           77.76044652621465       -0.01367951418333       -0.00864477649749
C           79.10350138020002       -0.01041554096096       -0.00595606792192
C           80.32760025390060       -0.00624583783620       -0.00524059459579
Ni          48.00045938155836        0.01352198165322       -0.04291144308388
C           44.58343627698213        0.02497205808450       -0.03629325163904
C           45.25564391484683       -0.74032443905509        0.92137338005097
C           44.58478535418244       -1.49443650390546        1.93144024408240
C           45.53875919716231       -2.19441009947026        2.59175397408971
C           46.78888940092814       -1.87019228995988        1.97563566068217
N           46.60699892873155       -0.94358664301385        0.97424263206168
C           47.99705735940681       -2.46272251848681        2.31772714516683
C           47.99510673557236       -3.53544886018115        3.33939971405125
C           47.30199437421349       -4.72780481954318        3.13538972396088
C           47.33226274966305       -5.70295300026192        4.11989040559288
N           47.99036526623124       -5.55557256326051        5.26512257345670
C           48.65075015415410       -4.42032732875934        5.46870792073294
C           48.68564955848076       -3.39038729961229        4.54186336596067
C           49.20693402694808       -2.09108528183978        1.74739268199509
C           50.45737162248373       -2.71776549015455        2.04958883194135
C           51.41389140322165       -2.01715062236936        1.39364854263231
N           49.39152153544656       -1.04333612461577        0.87373250350028
C           50.74409342175506       -0.97359515828939        0.68565308729644
C           51.41748058288594        0.02198872707320       -0.02899073511618
C           50.74490174938384        1.00963229703314       -0.75513867055946
C           51.41536419069216        2.04949603483005       -1.46794205054055
C           50.46147422592713        2.73510057385505       -2.14328680244404
C           49.21171029445525        2.10496626106037       -1.84544390721732
N           49.39381587691658        1.06869359763065       -0.95792165323283
C           48.00407529491805        2.46821743989006       -2.42623503874781
C           48.00772651877992        3.52733666203457       -3.46193723986699
C           48.70574927177107        3.36568004467199       -4.65801207684379
C           48.67802105490903        4.38323368133616       -5.59862772851194
N           48.01760537010758        5.52178473078131       -5.41434790664754
C           47.35238403320699        5.68500940793357       -4.27541090146984
C           47.31488289144944        4.72315198899638       -3.27813983475606
C           46.79386669455244        1.88416369747143       -2.07698515768833
C           45.54342186772659        2.21053999090351       -2.69144912602073
C           44.58682132990889        1.52816801298873       -2.01665113810408
C           45.25661084923950        0.77966845506833       -1.00175066070177
N           46.60927116160215        0.97062246416345       -1.06398724147959
H           43.52002604999209       -1.48168896739410        2.09931952301072
H           45.41732882113279       -2.86858403416665        3.42369493880249
H           46.75994924021739       -4.89504596385697        2.21229278048598
H           46.80493082199879       -6.64234908393010        3.98229806732265
H           49.17595886992637       -4.32901001675406        6.41491872412130
H           49.22908092285826       -2.47752354831336        4.75459080960537
H           50.57740703607160       -3.58289309021306        2.68086416334795
H           52.47957199393858       -2.17910097456988        1.38159267763437
H           52.47981460475543        2.21848414946455       -1.44674458764758
H           50.58269161083602        3.59302780704624       -2.78410000300117
H           49.24974041392907        2.44959371419532       -4.85490720442530
H           49.20950188079072        4.27895823090368       -6.53998350428851
H           46.82535046620357        6.62676256305290       -4.15358758367096
H           46.76775840173491        4.90376455453254       -2.36057043632783
H           45.42321155905832        2.87497526306651       -3.53135412118968
H           43.52110455120651        1.52258969604274       -2.17879731289607
Ni          66.57426562474079       -0.00197100631605       -0.03085613788993
C           63.15819519139592        0.00802341867764       -0.02536701539979
C           63.83071156205614       -0.74745147946971        0.94026678739003
C           63.16106370682500       -1.49065427703865        1.95917946384183
C           64.11537255064994       -2.18660449334204        2.62339633836376
C           65.36439917427583       -1.87190698830679        2.00008851753862
N           65.18161779345760       -0.95269848688955        0.99186118638510
C           66.57118019932338       -2.46994109941189        2.33713927872105
C           66.57066934415931       -3.53800788150362        3.36348980257541
C           65.86512213713378       -4.72521987249202        3.17242056034957
C           65.89831807684224       -5.69656572919116        4.16057153450192
N           66.57075476568184       -5.55021682724570        5.29756230814164
C           67.24311063848300       -4.41985277065147        5.48885286268988
C           67.27616587998385       -3.39403617547143        4.55740787310408
C           67.77908423297157       -2.10956332492438        1.75484487684281
C           69.02711737348768       -2.74636603343859        2.04544609155922
C           69.98330292189591       -2.05330291302247        1.38088472476784
N           67.96413395865622       -1.06363899635049        0.87942511004161
C           69.31570730447572       -1.00343370335075        0.68019717454328
C           69.99025316450471       -0.00518917892400       -0.02954964177980
C           69.31847498277250        0.99317093659515       -0.74164566514990
C           69.98868152526715        2.03990390166768       -1.44452715035749
C           69.03452307654818        2.73216112333406       -2.11288774940798
C           67.78500352099452        2.09858515342352       -1.82158163348313
N           67.96723837767682        1.05507619882292       -0.94275128331102
C           66.57793178408443        2.46010988264204       -2.40495731376133
C           66.57934571057088        3.52528428661301       -3.43429847090909
C           67.28396375607663        3.37697372332054       -4.62818337330023
C           67.25121624376796        4.39996718099432       -5.56277398127901
N           66.58010600401985        5.53158292686917       -5.37454782043422
C           65.90897692308458        5.68233576766945       -4.23734562720265
C           65.87558113149048        4.71409553995836       -3.24620442283484
C           65.36938634498880        1.86750748710074       -2.06444936449386
C           64.12047956039721        2.18604052917505       -2.68611528422902
C           63.16395368310233        1.49927098462721       -2.01555246753990
C           63.83216760735213        0.75680623955076       -0.99520441257375
N           65.18419114044953        0.95336419149964       -1.05200264505290
H           62.09682265116509       -1.47393734797471        2.12998931473539
H           63.99469633810413       -2.85276324159964        3.46188466297928
H           65.31147077881297       -4.89179822451194        2.25612416348235
H           65.36156748959340       -6.63201379683685        4.03283143718810
H           67.77995568267411       -4.32925078466951        6.42856820695813
H           67.82985375469201       -2.48504842927184        4.76005426492086
H           69.14595681865588       -3.61261508615266        2.67542279544316
H           71.04753675241695       -2.22361429353062        1.35944186061016
H           71.05320396974103        2.20839777273669       -1.42231959737541
H           69.15563794145976        3.59602457567941       -2.74571774550608
H           67.83650959182910        2.46678117518905       -4.82855741722684
H           67.78714927029743        4.30585753198185       -6.50267078068109
H           65.37315823665217        6.61866873694226       -4.11213508904969
H           65.32292916829459        4.88414130216363       -2.32993425809423
H           64.00132105932909        2.84842674526138       -3.52779264661023
H           62.09917061089379        1.48778126642168       -2.18340939936867
