130
 energy: -245.968298805456 gnorm: 0.000455060949 xtb: 6.5.1 (b24c23e)
Fe          14.47976226942195        0.00554910508983       -0.01246560204238
C           11.09493349437052       -0.00315945824458        0.18396508031517
C           11.73811598333793        1.21726491518140        0.18049101764737
C           11.05577413438544        2.47584777223959        0.20920801688169
C           12.00987648490216        3.43237720725469        0.29307987472638
C           13.27399348464959        2.75474177068029        0.32861577559811
N           13.09515856812340        1.40215051900031        0.22335309536456
C           14.49590259363432        3.39472605060702        0.50385304309887
C           14.50284412456755        4.86223610815719        0.71463045155505
C           13.86801691254596        5.41893388596305        1.82112186297069
C           13.87974414295046        6.79855058265863        2.02228898203325
C           13.18972462568064        7.33175286335608        3.22416200262828
O           13.26282326957651        8.66575447096898        3.33592853740235
O           12.61222657571426        6.65224495989828        4.03349725468169
C           14.52539088794740        7.63266476256831        1.10971650047234
C           15.15501821875766        7.08051218481598        0.00520971832673
C           15.14754587230778        5.70691110698165       -0.19199895646319
C           15.70910403517043        2.72099023119073        0.49549607601490
C           16.97535056624021        3.35088030243930        0.72482221436847
C           17.92273503408122        2.39900070779347        0.54694566476970
N           15.88304544789837        1.38388998792568        0.22819327137407
C           17.23262339039341        1.19070818499904        0.22032506648779
C           17.88991671317486        0.00151572320488       -0.11855138159925
C           17.20929034613922       -1.18692632436454       -0.41094006491321
C           17.87006273143776       -2.39182146998909       -0.80296849683367
C           16.91153743478682       -3.34413085103008       -0.90552922519167
C           15.66899388758659       -2.71758861925174       -0.56501218181031
N           15.86525855760030       -1.38415467458436       -0.29599936304604
C           14.45889741250394       -3.39123445308327       -0.47604677704352
C           14.44496522482947       -4.85746887288254       -0.69700106478241
C           15.15671816523600       -5.70781511082431        0.15179208370866
C           15.13996073924365       -7.08122407788661       -0.04811611555489
C           14.41809026405437       -7.62116535715833       -1.09931991907964
C           13.70596339226482       -6.78097016212120       -1.95664193282102
C           12.94781483067257       -7.39880175476888       -3.07376891083027
O           12.29856121587245       -6.50956142492693       -3.83870337922706
O           12.90437381487657       -8.58253885196587       -3.29149331392952
C           13.71811257232918       -5.40263650619040       -1.75309775911739
C           13.25713509880238       -2.75336316437668       -0.18885583134012
C           12.00220258623963       -3.43388465986192       -0.04564620201406
C           11.05947866144656       -2.48062947061563        0.14119915860651
C           11.74005742594606       -1.22100908285234        0.12057616603520
N           13.08853021163519       -1.40299546213327       -0.04228839705686
H           10.01206386307203       -0.00568867353318        0.23619938949111
H            9.98445844541761        2.59191739008842        0.16846115671573
H           11.88246165666190        4.50219034685513        0.32600750194067
H           13.37168995876137        4.78428445669745        2.54711681006209
H           12.79124617170609        8.93439876407735        4.14114060002998
H           14.53169922867377        8.70444607341736        1.26669567112478
H           15.65578469526914        7.72348449497076       -0.70972392190902
H           15.63268439690136        5.28175019801559       -1.06349423384093
H           17.11177954912807        4.38612828065056        0.99169711023253
H           18.99388559562702        2.49170920321745        0.62548437531482
H           18.93050291025058       -2.48190025630967       -0.97511896280304
H           17.02517762704801       -4.37712367357712       -1.19136161847729
H           15.71292863580046       -5.28697061894551        0.98189780674209
H           15.69238722768997       -7.72985429861015        0.62207890029975
H           14.39474152406948       -8.69145967784493       -1.27050510187065
H           11.83230953058419       -6.99015840951303       -4.54194286547302
H           13.17338460907333       -4.75112672696831       -2.42608864544613
H           11.87289025205916       -4.50338086300175       -0.08170570225699
H            9.99661191631930       -2.59929543473247        0.27935559637221
Fe          30.46301601582762       -0.00162646209611       -0.01375800272810
C           33.84779201268989       -0.05800103784181        0.17592299902307
C           33.20456740030425       -1.21029022084678       -0.22609734069251
C           33.88680649234768       -2.40931099347703       -0.60993453546769
C           32.93260799736260       -3.34061483527688       -0.84333606423070
C           31.66855393741512       -2.71159006299670       -0.58854123306965
N           31.84749629306680       -1.39879275805301       -0.24637825128764
C           30.44665107365837       -3.37374038523878       -0.63144541909193
C           30.43973783690106       -4.82976400620384       -0.91076449189825
C           31.07424786437555       -5.71677347769248       -0.04599205202040
C           31.06259812062861       -7.08659066366386       -0.30560459297799
C           31.75228081736064       -7.98249522999944        0.65700874438607
O           31.67911903721930       -9.28006242208227        0.32783306617642
O           32.32947876324469       -7.60396975115903        1.64382982636973
C           30.41738482308983       -7.57758514767916       -1.44051510731694
C           29.78809996607107       -6.69549918397333       -2.30490455701788
C           29.79544456434698       -5.33265779279960       -2.04348397654925
C           29.23347779734474       -2.73416931255615       -0.41944366840150
C           27.96721774909829       -3.40437366676623       -0.40810128102472
C           27.01982460003826       -2.44642645006370       -0.26652237909630
N           29.05956855330669       -1.38294339795223       -0.23646781174406
C           27.70998925357114       -1.19770701877175       -0.18126410138455
C           27.05292713212737        0.03713175617663       -0.11435281921206
C           27.73373450652879        1.25578504940209       -0.00235285028410
C           27.07304884915068        2.52270181488449        0.02026022702030
C           28.03151291366182        3.45620891763847        0.23494357396261
C           29.27400054677114        2.75276416560589        0.35248167829643
N           29.07771509942524        1.40459782793959        0.17115314883956
C           30.48411909357446        3.36047081024921        0.65641367666042
C           30.49804233248710        4.81858297732249        0.92581311711668
C           29.78623844106282        5.34555355751284        2.00552394641937
C           29.80276231441993        6.70908379422550        2.26438774702558
C           30.52447151543775        7.56241995089260        1.44669729681009
C           31.23668732600681        7.04782509160425        0.36226428012341
C           31.99463458633483        7.99629752021542       -0.49237033422171
O           32.64321226604751        7.40530991373631       -1.50601643360898
O           32.03846630150129        9.18625028100587       -0.31177463255359
C           31.22476700046368        5.67845328950402        0.10522803774726
C           31.68588080923502        2.66379049048929        0.71970660240813
C           32.94084407866731        3.26026660035145        1.07714510443792
C           33.88342393963708        2.29798894879571        0.94335593780774
C           33.20275156651955        1.11401869109806        0.51304892672335
N           31.85435575133767        1.33942424842453        0.41794967514730
H           34.93063620358937       -0.07286960259036        0.22659251320061
H           34.95811994126353       -2.50586267440473       -0.68616108364489
H           33.05987901650969       -4.36249889749851       -1.16171513100452
H           31.57028839214199       -5.35346253867034        0.84739337433412
H           32.15043819576747       -9.79654339988616        1.00164178357406
H           30.41116340509319       -8.64198185941845       -1.64155372752259
H           29.28770530948574       -7.07025088001556       -3.19061211803480
H           29.31053413063436       -4.64657992881437       -2.72889481871122
H           27.83079333110824       -4.47009087895157       -0.49302605150940
H           25.94866611540941       -2.55964226858847       -0.22263145571543
H           26.01265172866495        2.66411058208435       -0.11332694133025
H           27.91786439751737        4.52589449329365        0.30234597529815
H           29.23014540411106        4.67693896399735        2.65303380987740
H           29.25024680591370        7.10362547470073        3.10944513806122
H           30.54758849073766        8.63004457718375        1.63384599461052
H           33.10937683618108        8.08901792078587       -2.01409279735873
H           31.76955314553868        5.28210546265892       -0.74343411910631
H           33.07029037654773        4.28310585605923        1.39161172450018
H           34.94625946275639        2.36495387959360        1.11292302471379
C           23.08655948578257        0.03865015026054       -0.19613757226095
C           21.85632729850518        0.02401731320940       -0.19643592170320
C           20.51529727601737        0.01303102179206       -0.18296021134893
C           19.28982619180133        0.00284175292229       -0.16093522795627
C           24.42761312151719        0.04610770353156       -0.18198386988335
C           25.65307740023997        0.04994718804318       -0.15677487435560
