420
 energy: -686.685216343033 gnorm: 0.000359757466 xtb: 6.5.1 (b24c23e)
C           90.66413575096466       -0.07926962069031       -0.29325338589555
C           91.22925711466797        0.86777237443985        0.55074800754657
C           90.53401719083416        1.78595215993522        1.38675858294366
C           91.46230914339320        2.54737135910557        2.03959533914793
C           92.75513812940463        2.12608690162718        1.61622454057636
N           92.56310580341552        1.10432306699581        0.72893184083453
C           93.99575858569085        2.63136840521047        2.01891726338679
C           93.97886946345820        3.77410832485765        2.96505756736724
C           93.40746393459995        4.94503606831072        2.64571424876230
C           93.36289963714083        6.11292604309972        3.59648589318869
N           94.29932784021102        5.93032747050172        4.70877448453925
C           94.70942252307368        4.67706823198196        5.08182113401136
C           94.61179807725536        3.61254406186967        4.26607454891662
C           95.23482733615498        2.14427246276937        1.59430004131599
C           96.50513693329071        2.73343336776576        1.97511863548720
C           97.46274774932283        2.00271748233804        1.36738088142656
N           95.44143136300856        1.08786786880618        0.76060803067045
C           96.77772716616583        0.97008836021139        0.61503643194162
C           97.46130728712922        0.00067430298077       -0.14577107203905
C           96.86826152826887       -0.99306030788432       -0.94813192545588
C           97.55038977020756       -2.00076858918548       -1.67905389810965
C           96.61606240343369       -2.75410221487984       -2.33470416616964
C           95.33234797508088       -2.22743884067348       -2.02527087035941
N           95.53585482193131       -1.17045918967686       -1.17755341026488
C           94.09343849362564       -2.70313324235722       -2.47064037951949
C           94.12270900182908       -3.84266880907961       -3.41871244353171
C           93.54497401961390       -5.01787051012060       -3.12767679851755
C           93.54963957018062       -6.18265929849999       -4.08287575050328
N           94.54353363354977       -5.99729704805079       -5.14398803961943
C           94.96055832742502       -4.74056163746585       -5.49853108711267
C           94.81627067361096       -3.67697317160600       -4.68867743716087
C           92.85347917899227       -2.18380579991881       -2.08609460024076
C           91.57449156422854       -2.64964617026306       -2.59881385897354
C           90.62481724571519       -1.91794938517426       -1.98128978817431
C           91.32271882606479       -0.99668787632989       -1.10245320352498
N           92.66212494542795       -1.17747122079564       -1.19914507170731
H           89.57915269911231       -0.09572575569531       -0.31969866339227
H           89.46044596508025        1.84263866833838        1.47248174744723
H           91.27432391580096        3.32825072170665        2.75852986213981
H           93.31218723792017        0.59636119601362        0.27063064803853
H           92.93571078693530        5.10661852769110        1.68334802402818
H           92.33604941700894        6.24971883528210        3.98456545826497
H           93.63583759860846        7.03852718228598        3.07117186966152
H           94.18783048132907        6.60448502582775        5.45203930402434
H           95.19278814951909        4.62798455734079        6.05239546121100
H           94.98722474861984        2.64223125713857        4.55836101987116
H           96.62533897555689        3.59600604328226        2.61048239159377
H           98.53158619051337        2.13969722150316        1.39839257286426
H           98.61966676331542       -2.13445650450544       -1.68845247848509
H           96.79659622703598       -3.60584455574475       -2.97004514449434
H           94.79233209550661       -0.61149232521026       -0.77229341299763
H           93.02998757928270       -5.18347112457142       -2.18860343066001
H           92.54457501481190       -6.31760941031205       -4.52458438205421
H           93.79476332573083       -7.10979898357861       -3.54696886055536
H           94.47025234344279       -6.67050918235557       -5.89299656636253
H           95.48950495160702       -4.68768028100103       -6.44487256015164
H           95.19529074186553       -2.70334349441404       -4.96535665025325
H           91.44564709076735       -3.42210325250817       -3.33985517701924
H           89.55307870535744       -1.96710563669434       -2.09592889302181
C          162.98950165702627       -0.11099657600386       -0.52489370782409
C          162.34784312387379       -0.83209960021133       -1.52329447486664
C          162.96711333085025       -1.60350691833753       -2.54663275339298
C          161.98076363741146       -2.13781773910506       -3.32698941031267
C          160.72626797516904       -1.70105694338116       -2.81317735750054
N          160.99910369102096       -0.92747999602595       -1.71969867512429
C          159.44919178322368       -1.99859778508040       -3.30020366080133
C          159.37518167373867       -2.83381686238086       -4.52379733780892
C          159.92184343317723       -2.43748993801341       -5.68306099497261
C          159.87624019974047       -3.28098489772643       -6.93069437176860
N          158.87366447905416       -4.34368333334781       -6.81729397136923
C          158.49220075534657       -4.81387674044281       -5.58711138918298
C          158.67834666061850       -4.11048364017072       -4.45646178191839
C          158.25299130550798       -1.57008937079082       -2.71742841648013
C          156.93972672358461       -1.84598285102546       -3.27061432464566
C          156.04534896027414       -1.28109731382972       -2.43315936010326
N          158.13465036381260       -0.83574988796216       -1.57796966907953
C          156.81269497035362       -0.65491769937632       -1.37394349370184
C          156.21149221829356        0.00459102773271       -0.28534223261061
C          156.87879012957737        0.65844639515794        0.76658432596504
C          156.26878471307865        1.32548398553399        1.86190227673123
C          157.26000778259913        1.87624192212206        2.62638536724447
C          158.50717717662863        1.56732729224466        2.01719757619131
N          158.22572550178089        0.82046768214704        0.90392772096014
C          159.78276765077888        1.93141170603840        2.46416986242106
C          159.84442552459984        2.78784060800696        3.67278043903128
C          160.46889240426276        2.39132876921688        4.79181706132045
C          160.56066396229605        3.26209053728179        6.01783605169984
N          159.57771033428278        4.34815214044852        5.97167215071777
C          159.11639588514808        4.81452730249910        4.76716143651265
C          159.18859459003230        4.08816346011767        3.63815336112569
C          160.98001026613045        1.55255347361525        1.84892946895829
C          162.30016210956023        1.97284874482454        2.29183670050230
C          163.18694518795363        1.39031425124889        1.45947200149339
C          162.40943626959864        0.62896714146441        0.49807592643816
N          161.08574187341591        0.75700120073096        0.75698991833953
H          164.07431850112542       -0.13008044238381       -0.55759262914357
H          164.03247460506299       -1.73033797598627       -2.65639740699442
H          162.10478413784261       -2.78519689790502       -4.17990902670651
H          160.29172214702487       -0.48964507361373       -1.13905752111466
H          160.43815382079165       -1.48909903794627       -5.77663159896472
H          160.87214389797131       -3.71900275132245       -7.13156207797382
H          159.61520818019457       -2.65952277890360       -7.79805934837579
H          158.91756448786742       -5.02580637915945       -7.56056234465265
H          157.95478520478693       -5.75659977945036       -5.60803421762758
H          158.32551444703259       -4.47438211718804       -3.50200167917119
H          156.75021740045727       -2.39169007021423       -4.18082174745911
H          154.96936243097539       -1.27462161398145       -2.50460212826989
H          155.20584932478772        1.37425966126984        2.03503445771152
H          157.14159100043659        2.44411297535732        3.53483040717475
H          158.92854234315689        0.44688226459158        0.27457826229445
H          160.95605097448339        1.42590925392403        4.86266659755798
H          161.58131855344547        3.67778988007379        6.11467255777145
H          160.36582911654037        2.66737080768095        6.92027349312258
H          159.70372250461128        5.04026844418101        6.69628451574065
H          158.61349116720541        5.77524189659262        4.81380469434462
H          158.77571137994340        4.45148627410937        2.70770399482590
H          162.49723783557388        2.63324914299669        3.12096107022915
H          164.26366660852685        1.46000807214579        1.46356438981968
C           98.87040696579771        0.01467600214352       -0.11176051117614
C          100.08772960837369        0.01924443151640       -0.09072720241072
C          109.80278588975050        0.04670553824531        0.08808029927346
C          111.02070947355135        0.02951953806787        0.10698518637153
C          120.74202953392830       -0.00010510798501        0.25439275156531
C          121.96044418700153       -0.00894055825125        0.26183279434981
C          131.69248390364803       -0.09123720237395        0.25900526328386
C          132.91123026761676       -0.09753025589210        0.24671607947783
C          142.65455207083440        0.01868079617556        0.18266014290624
C          143.87287562634307        0.06607657546492        0.16620444973548
C          153.58616980456182        0.04799335466894       -0.18092440855704
C          154.80131384352595        0.02549722275865       -0.23281662628449
C          101.49598794151458        0.02296594315153       -0.06120316042463
C          102.10259407070834        0.61230494878061        1.06449848664976
C          101.43989536196344        1.20615692883155        2.16913411123002
C          102.39328992559150        1.68792160816175        3.02397070685447
C          103.66845633308724        1.38968183405218        2.47181836458275
N          103.44168807680778        0.73899161252453        1.28806007403979
C          104.91781440872792        1.72541471015048        3.00546030644254
C          104.91008149042926        2.45074267751692        4.30184246814372
C          104.44767132776238        1.88190303600257        5.42475668137885
C          104.48134972524070        2.58267528708185        6.75771279111812
N          104.67919577890359        4.02517570502279        6.59274093813653
C          105.30047197874443        4.52221330632868        5.47628801112545
C          105.41486288890478        3.81539583599924        4.33815006728546
C          106.15636615428382        1.43967419203920        2.43025349213052
C          107.42418164219524        1.78165138741714        3.04845707338134
C          108.38783602682501        1.31710086739774        2.22637333072326
N          106.37141873406270        0.77659890566097        1.26000540129611
C          107.70918016835535        0.68453906913493        1.11353747975525
C          108.39542368518192        0.06079357673920        0.05176030311675
C          107.78736937080467       -0.56606983336888       -1.05365349833391
C          108.44708997959768       -1.24696745330577       -2.10844618127260
C          107.49328400401532       -1.71571429550103       -2.97024550959573
C          106.22099140641129       -1.33192734827394       -2.46690248830165
N          106.44929779358881       -0.64661966268475       -1.30299383366248
C          104.97178055123170       -1.61142527517257       -3.03291566985688
C          104.98017826057919       -2.32629882413892       -4.33394396002246
C          105.53005039996728       -1.78521761947155       -5.43140070863316
C          105.49989056195750       -2.47245516161071       -6.77128867207751
N          105.20076437492241       -3.89955104962392       -6.62683795252310
C          104.49572117001679       -4.35755402893941       -5.54345132911605
C          104.37992701476713       -3.65040256689012       -4.40580964352082
C          103.73302044742293       -1.27944163079201       -2.48265522518070
C          102.46757809166705       -1.52800395970899       -3.14865382859915
C          101.50402312123909       -1.07290618100019       -2.32091874174244
C          102.18124629200159       -0.54580131125331       -1.15334031827344
N          103.51815648507090       -0.67187465145328       -1.28330333302092
H          100.37013673369199        1.25763912510318        2.28829665375486
H          102.23058517764274        2.20982356371024        3.95276832438364
H          104.16882821545794        0.40526949453391        0.66420353792235
H          104.09289025904486        0.85792313730187        5.44159179850819
H          105.28276995038878        2.15924137923432        7.39211654353048
H          103.53247181175840        2.42887310231708        7.28943022302966
H          104.85978039115923        4.51355394151202        7.45795719042202
H          105.61506619234733        5.55792767214070        5.55570680155381
H          105.83907366966322        4.25080663057339        3.44467311124577
H          107.53948279440334        2.29803352245253        3.98787033577252
H          109.45742354227114        1.38627649116061        2.34036046873115
H          109.51458922428678       -1.37109915048184       -2.18651326163661
H          107.65337504805363       -2.28800261938620       -3.86934211383590
H          105.72356631103582       -0.26305544335035       -0.70681344075713
H          105.95828748882043       -0.78959215859148       -5.42353544127304
H          104.75283138897552       -1.99197592331969       -7.43099383529447
H          106.47619677911301       -2.37881845505896       -7.26584464677631
H          105.02449981440125       -4.36931047749399       -7.50324915363403
H          104.11362465026946       -5.36828880966213       -5.64541891110108
H          103.88624100307497       -4.05954373126934       -3.53588398714069
H          102.35469272260136       -1.97471336099406       -4.12345784587212
H          100.43657239021285       -1.06930075204711       -2.47172765442056
C          112.42804905945979        0.00942908115780        0.13466603896862
C          113.04066601140433        0.19128855121066        1.39003248908233
C          112.38464002410861        0.37988719374887        2.63302512594830
C          113.34262583502226        0.56072051254606        3.59306221573032
C          114.61435681734710        0.47581086261354        2.96477383522491
N          114.38093682661807        0.24705295003720        1.63454377734337
C          115.86515873251815        0.64613404980361        3.56918415487705
C          115.86082441633189        0.91905055496151        5.02964552762776
C          115.43143555922775        0.00779272077278        5.91469989185993
C          115.47019434780073        0.24650139637064        7.40149119649727
N          115.62280499042670        1.67201693235475        7.70454148362269
C          116.21400760990070        2.51799217241791        6.80187681331310
C          116.33033267856575        2.21504037513431        5.49700271606725
C          117.10108119917552        0.58405758267031        2.92539589495618
C          118.37003184082242        0.75153254833370        3.60958369894754
C          119.33158348857543        0.57846418445056        2.67912885059318
N          117.31374163952262        0.31219245418574        1.60750502296912
C          118.65098236894306        0.29351425027284        1.43243700925004
C          119.33475467314229        0.01231292498516        0.23182971086227
C          118.72091952848922       -0.27571430174459       -1.00350820200076
C          119.37413468018475       -0.63418810320594       -2.20995343486326
C          118.41600408614056       -0.82782171224975       -3.16760829083501
C          117.14762650022223       -0.58862909498910       -2.57343881696375
N          117.38212384335961       -0.27064213816913       -1.26175753826855
C          115.89665929022627       -0.66475241884586       -3.19729651415096
C          115.89996619169155       -0.95607048504926       -4.65257853245910
C          116.48170931010159       -0.12964090036718       -5.53503229144654
C          116.44695598484957       -0.38092347209131       -7.01959553060318
N          116.10281063698721       -1.77482751536955       -7.31173222485880
C          115.36799728694814       -2.51221833499446       -6.41891207707463
C          115.25861814085262       -2.17563062286041       -5.12184632895959
C          114.66054263144792       -0.48876924553728       -2.57370395713050
C          113.39629261187801       -0.48712187531856       -3.28637841855116
C          112.43491103435214       -0.29501646096487       -2.35907949041663
C          113.11194647852429       -0.18066773411138       -1.08343725419350
N          114.44730998383770       -0.28383741195235       -1.24442664732406
H          111.31593668574328        0.37743233764506        2.77000113555988
H          113.18490112400367        0.74367201040713        4.64336912618813
H          115.10417534782414        0.14261374160473        0.93074550625020
H          115.10240949141479       -0.97749267957843        5.60548963990195
H          116.29565890762034       -0.33013948149448        7.85993957994554
H          114.53656972147769       -0.10073050859444        7.86448062451369
H          115.80388694580240        1.86401278597726        8.67930086367397
H          116.50136272979664        3.48341198284779        7.20607416819514
H          116.72897002334331        2.92549060532932        4.78693814576208
H          118.48787027754317        0.96404403596837        4.66000279955191
H          120.40097861459719        0.63419191077324        2.80144200620694
H          120.44015155423351       -0.74326793597048       -2.32237966169026
H          118.57114593267856       -1.12261462892770       -4.19255975198163
H          116.66024209217386       -0.06780256585551       -0.57844063473313
H          116.94089819623869        0.80253759536837       -5.22695737731845
H          115.72287725803689        0.29987724016252       -7.50586837271874
H          117.43153294979416       -0.17490994112815       -7.46076061666642
H          115.92444102088679       -1.95366367142550       -8.28951796765391
H          114.95548339359061       -3.43191158191103       -6.82136313477011
H          114.73989488406593       -2.80993501087880       -4.41722864487434
H          113.28273232196386       -0.59968374551369       -4.35266960404283
H          111.36926455321024       -0.21977536447649       -2.50325238042614
C          123.36759951966837       -0.02920665945194        0.26658449081684
C          123.99973002276779       -0.16179468402789        1.51858770841569
C          123.36525915865802       -0.28323849245640        2.78082523028991
C          124.33946321238051       -0.32960324010226        3.74051544518821
C          125.60012396591848       -0.25012723248588        3.08963561091520
N          125.34396780995202       -0.15675781520861        1.74731131152391
C          126.85997603716999       -0.21212327811877        3.69783129656868
C          126.87756532468769       -0.28394605905404        5.18211267672970
C          126.48280327978851       -1.38494273461238        5.83756894616135
C          126.54302457214214       -1.49555454062100        7.33863508213907
N          126.67639329808186       -0.17580013576645        7.96127139666781
C          127.23304289560674        0.86971695830801        7.27102840727103
C          127.33018276847207        0.87972879443001        5.92989157346545
C          128.08609940955250       -0.11246460402318        3.04059894131441
C          129.36320511112848       -0.08780778338010        3.72944377163203
C          130.31271460703252       -0.04435706552887        2.77199652621841
N          128.28231601232346       -0.08437750714403        1.69263290301137
C          129.61724098660446       -0.05581543146319        1.50153675638687
C          130.28537891803649       -0.07378049714399        0.25956774875101
C          129.65026194078797       -0.08620965336941       -0.99876324581201
C          130.27926531492344       -0.18212480224517       -2.26557849713139
C          129.30473976540350       -0.13989047431613       -3.22551165540871
C          128.05006982079809       -0.01292097513059       -2.57102659934189
N          128.30839548179051       -0.00198777548395       -1.22583166445388
C          126.79120253704103        0.08958319392221       -3.17542468234798
C          126.77425840182009        0.15489972851176       -4.65788425687267
C          127.37691376474426        1.15147542030376       -5.32425369909626
C          127.32631116806283        1.26695047742335       -6.82489725518305
N          126.91941772706569        0.00100251690071       -7.44029979274819
C          126.17050085057498       -0.90820588586749       -6.73861573223442
C          126.08810662709749       -0.89475463103632       -5.39668137242254
C          125.56577314976498        0.13997371259237       -2.50962142592829
C          124.29601257919525        0.34522821936455       -3.18163170145673
C          123.34669623468208        0.31489999308989       -2.22289898605037
C          124.03672397719582        0.09194693256283       -0.96896810743945
N          125.36835044817279        0.01180638712020       -1.16819465513458
H          122.29923530494996       -0.32689449007583        2.93065856599664
H          124.19998880696949       -0.40515587869606        4.80651563209060
H          126.05425192402575       -0.08474841009165        1.02645551873931
H          126.16724624280833       -2.27919621468565        5.31281221891892
H          127.38591206406115       -2.14535396893638        7.64083285405237
H          125.62347506050121       -1.95958611690731        7.72047671885112
H          126.87025632819164       -0.20984346960973        8.95169713742933
H          127.50937302560182        1.72178477088772        7.88390633482389
H          127.70158397279565        1.74405419195321        5.39807568122798
H          129.49421665201504       -0.10894332602670        4.79940006221387
H          131.38306325602326       -0.00689207201562        2.89079899226662
H          131.34073647833213       -0.28488848723886       -2.41829636735850
H          129.44004540388806       -0.20360255522988       -4.29280375279338
H          127.60104334684075        0.05750987927289       -0.50107632416737
H          127.86837122845571        1.96761571530575       -4.80736486781889
H          126.63205680264639        2.07514595197683       -7.12298214241140
H          128.31796300253023        1.53170421565867       -7.21656559672894
H          126.72306985277143        0.07241147291171       -8.42825255201806
H          125.72053890267452       -1.68832589834544       -7.34436342888413
H          125.55580252852263       -1.66527433149832       -4.85739633047294
H          124.17128826569899        0.50802104184133       -4.24015428297181
H          122.28197388950528        0.44565150376041       -2.32877931398161
C          134.31822985031164       -0.10595435274836        0.23670572149489
C          134.96435997791158       -0.41863189605032        1.44941227384915
C          134.34483232117097       -0.74543141278835        2.68200265317143
C          135.32840586376500       -0.91367002296636        3.61814485111264
C          136.58075206299381       -0.70568263225725        2.97995238795912
N          136.31027676518713       -0.41804666138019        1.66829399964654
C          137.84398650206347       -0.72475105990799        3.58171327280844
C          137.87456732864345       -1.01142351419714        5.03986137352602
C          137.51761547139881       -2.20732316679783        5.52967569828133
C          137.59377131717929       -2.53234754027677        6.99862328297163
N          137.68665292010053       -1.31276147157467        7.80557968995559
C          138.20829866067061       -0.16189622337160        7.27331018774281
C          138.29751591887756        0.04477344230140        5.94762474419342
C          139.06285541018491       -0.49852060868441        2.94269682780962
C          140.34216094639470       -0.54299974218589        3.62606526050278
C          141.28524852376387       -0.33808013737609        2.68353551929101
N          139.25193417267587       -0.27085212158835        1.61266380976436
C          140.58510298496043       -0.18194667544093        1.42578656251959
C          141.24737767433092       -0.01456683204495        0.19140091963766
C          140.59994172293636        0.11132788303631       -1.05524947046074
C          141.21643435178893        0.18171291322543       -2.32947638685150
C          140.23231976772871        0.33193992404802       -3.26850389437118
C          138.98320072470793        0.36110993303321       -2.59264596750305
N          139.25465836276771        0.20344701020427       -1.25913522485355
C          137.71893267101245        0.53217264610713       -3.16971833385337
C          137.69047544939025        0.79687810950480       -4.62987002620348
C          138.27642404688305        1.88164591654896       -5.15932598886660
C          138.21214827279724        2.19882929239600       -6.63014030401897
N          137.80939830313184        1.02481655263426       -7.40894503132655
C          137.07825896168544        0.01923985319793       -6.83105043935729
C          137.00945777298602       -0.15123797646254       -5.49914306777806
C          136.49772802018856        0.48180575964795       -2.49658274095400
C          135.22252302791503        0.76828679141233       -3.12710056456297
C          134.27940390558041        0.59634871089793       -2.17721752284004
C          134.97817677298596        0.20424329180099       -0.97078760980569
N          136.30923341575976        0.16559518518224       -1.18529125333653
H          133.28185791593793       -0.83823901719524        2.82941719537915
H          135.20025242302069       -1.15364370479038        4.66096412570452
H          137.01181468695438       -0.22121895066784        0.96229932235147
H          137.22440283645949       -3.02515153468486        4.88177221314837
H          138.46108253171838       -3.18891312614322        7.20060787407992
H          136.69395952750915       -3.07880191610034        7.31207491917064
H          137.88741384536840       -1.48358008630820        8.78040907698455
H          138.46223063995996        0.60068167191674        8.00269911955066
H          138.64024855496729        0.98767876674401        5.54598526183785
H          140.47924864137576       -0.71692889024228        4.68121708154099
H          142.35484088703998       -0.29841530807618        2.80453434147567
H          142.27656877215250        0.10847037585582       -2.50378590147496
H          140.35782487782853        0.40420441510628       -4.33644144681282
H          138.55413468323633        0.16260801367866       -0.52651441081396
H          138.76323522773654        2.62631691987736       -4.54020954749839
H          137.50936401876868        3.03398648684894       -6.81067429152653
H          139.19840209573590        2.52294591471003       -6.98964227545615
H          137.60101943435657        1.22855142953941       -8.37577678225827
H          136.63062184205839       -0.67653941947863       -7.53355198707296
H          136.49116002458055       -0.99445837662941       -5.06529880031873
H          135.09021009992654        1.07601974740207       -4.15196559970071
H          133.21320886971415        0.73118940581000       -2.25872646510199
C          145.27995391565281        0.09520708355020        0.13182266001506
C          145.95844550913236       -0.19241432826013        1.33329628063889
C          145.37011937633119       -0.47345072908006        2.59221569310987
C          146.37581891731003       -0.62110926272186        3.50745400288664
C          147.61298816348040       -0.44895412609207        2.83001527625299
N          147.30989065621907       -0.19439188272236        1.51815188945898
C          148.89232797006804       -0.48705118757682        3.39571896080424
C          148.96379850568678       -0.75380014366142        4.85531891412048
C          148.56783152748972       -1.92335121172863        5.37845294643616
C          148.68528963159076       -2.22997610065095        6.84851012828694
N          148.86725263084912       -1.00447943616441        7.63090563550577
C          149.42558706559922        0.11032619135367        7.06033328920131
C          149.47443751997071        0.29239250452210        5.72897661337516
C          150.09534950245381       -0.30809572419088        2.71168265704611
C          151.39991304924436       -0.41137606938063        3.34074525682075
C          152.31194481003533       -0.25319451416284        2.35908296764137
N          150.23663989428462       -0.08790237741563        1.37639463366465
C          151.56377875615573       -0.05719640464415        1.13323936000511
C          152.17758283514749        0.08061078416156       -0.12564668476027
C          151.50404122686976        0.24565168331995       -1.34968347936207
C          152.09578694393107        0.36915115306654       -2.63306759181631
C          151.09169573624933        0.56183708073019       -3.54260128113429
C          149.85716189690925        0.57129596719277       -2.83818690504252
N          150.15592619878072        0.35947277971782       -1.51891041777304
C          148.57865049626312        0.77136996087854       -3.37204242900240
C          148.50702153462115        1.07145460740761       -4.82360371803528
C          149.09418789587627        2.15840452252358       -5.34723081269678
C          148.98953630594914        2.50863020705408       -6.80821678833725
N          148.55124319444252        1.35563374012668       -7.59891162057155
C          147.81905483505699        0.35050029952337       -7.02170458757920
C          147.78450219985649        0.15368549252213       -5.69206333298227
C          147.38008640246977        0.71736525269153       -2.65897409009425
C          146.08833400629561        1.02836053828070       -3.24159773933977
C          145.17482011988477        0.84103050383942       -2.26626150329785
C          145.90748967334750        0.41968003287166       -1.09040811237532
N          147.23077464011570        0.37701215083821       -1.34803373194006
H          144.31093494915623       -0.54398492902427        2.77253328349475
H          146.27225666916772       -0.82354466809322        4.56088775686786
H          147.99538306984599       -0.02458595986797        0.78974236311326
H          148.21121264631171       -2.73565127674738        4.75586585912131
H          149.52747585153602       -2.92460140070785        7.02823567889133
H          147.77327971981256       -2.72766148090324        7.20490024633681
H          149.09629423189904       -1.17058859458979        8.60032170267767
H          149.74500339268016        0.86987262528672        7.76678459064419
H          149.84855068676200        1.21056854465382        5.29898723752634
H          151.57198004211060       -0.59583939699758        4.38903647199657
H          153.38778269212858       -0.27508664032247        2.43046158397882
H          153.15460729054078        0.31635799637480       -2.82843120690672
H          151.19390660027332        0.68051118469199       -4.60890384931871
H          149.47077356837323        0.30366040594247       -0.77285388028706
H          149.61191972731643        2.88144013148606       -4.72758462029296
H          148.29063997100042        3.35459427492553       -6.94957717996347
H          149.96799874424073        2.83017222017885       -7.19027524134468
H          148.32318560634550        1.58051236372465       -8.55655402088251
H          147.34053786811617       -0.32333057621024       -7.72523837680458
H          147.26430349201055       -0.68979640107060       -5.26101205961662
H          145.92574254018191        1.36144701307238       -4.25406811561800
H          144.10892197307598        0.99140063204454       -2.30964959873046
