231
 energy: -408.638137956896 gnorm: 0.000734120149 xtb: 6.5.1 (b24c23e)
Fe          26.06256523490130        0.11479206254831       -0.09006489100111
C           22.68579438850265        0.38882344785908       -0.32294667433911
C           23.33538472179020        1.19422532662608        0.58902598197161
C           22.65626117622011        2.10190305607681        1.46412277900992
C           23.60250768777146        2.65453124654208        2.25848461823752
C           24.86114331041312        2.09959396957690        1.85327695211894
N           24.68452059837753        1.20991905502487        0.82799345537315
C           26.07604130919375        2.42744557214979        2.44215580385641
C           27.28786162995618        1.91003989311889        2.01227393453207
C           28.55400994993135        2.30061025304319        2.55675686084168
C           29.50438587343360        1.65611094753607        1.83910328266881
N           27.46703438290962        1.02640465371039        0.97390925397920
C           28.81640021082251        0.86752930552619        0.86465271869098
C           29.47756665267723        0.05705497258162       -0.06534469011129
C           28.80292996875663       -0.76708724063647       -0.97334368096013
C           29.47806359333016       -1.66479460350807       -1.85833570992573
C           28.51705923549317       -2.35377424196649       -2.51812811030351
C           27.25707132034612       -1.85910194859543       -2.04970495989446
C           26.03190397385811       -2.32404755881243       -2.50049365007856
C           26.00975829409902       -3.41453370457543       -3.51437863772161
C           26.42789120464622       -3.17228863956664       -4.82954715082642
O           26.83704801708611       -1.90456161543042       -5.09777854500788
C           27.27548243968898       -1.55119928699773       -6.39398175026153
C           26.39900903406634       -4.19453288883408       -5.77761125471114
C           25.95630468367755       -5.45488198733682       -5.40552619197928
C           25.53836400231255       -5.71807484834515       -4.10978980132655
C           25.56171128394248       -4.69473043775595       -3.16271612207798
O           25.17683357360738       -4.85318937782151       -1.86929184212502
C           24.70375478552894       -6.10318994976482       -1.41001714037173
C           24.81858487110382       -1.80074007176174       -2.07087840144209
C           23.54730076104893       -2.20871977217669       -2.59411143910155
C           22.61220579990941       -1.42556400435100       -2.00717117659383
C           23.31244111147224       -0.54843736099904       -1.11781714312642
N           24.66078449823977       -0.78486777376544       -1.16724507196146
N           27.45069511574999       -0.88113184333450       -1.10198805179643
C           26.08088280290128        3.39712635285349        3.57225473699661
C           26.38071682264491        2.96534787186518        4.87113270092854
O           26.64687903526261        1.64010432221511        5.00840216850934
C           26.96351592044737        1.09954624229372        6.27519648873893
C           26.38376605058759        3.87085019958481        5.93170428504646
C           26.09436615136963        5.20484351585350        5.68769870881296
C           25.79941429797764        5.65585001131561        4.40999050237476
C           25.79007590488202        4.74968984735215        3.35010147332099
O           25.51968634072259        5.09470249634561        2.06377902306669
C           25.20920138815746        6.43237432994513        1.72989937141728
H           21.60759567609677        0.47680707631402       -0.39821246806874
H           21.59061040199931        2.26910989377489        1.46408221484608
H           23.47450059679742        3.37607318748733        3.04888342046537
H           28.68609927845368        2.98755942040250        3.37669031083787
H           30.57628866468367        1.69795825029542        1.94801676820720
H           30.54942647567984       -1.75434827850574       -1.94064184783480
H           28.63836905205049       -3.12711596837347       -3.25882899382918
H           26.47985847168299       -1.68362827761240       -7.13715295691244
H           27.54789086475660       -0.49533527237345       -6.34460430296202
H           28.15339507003796       -2.13583302530320       -6.69462142212487
H           26.71646966341968       -4.01698573884789       -6.79639319679285
H           25.93591503392066       -6.25015442544989       -6.14257412464935
H           25.19869898235711       -6.71103390842001       -3.84731371211290
H           24.45761456971200       -5.96562340798517       -0.35550664073539
H           23.80299094641198       -6.41560530247222       -1.95224497608822
H           25.47062114803782       -6.88182496875943       -1.50224693478689
H           23.40483022490523       -2.98899875971911       -3.32412896366868
H           21.54251881959685       -1.42887939670974       -2.14621065564292
H           27.14039370257178        0.03441758573213        6.11484990884009
H           26.13568871682790        1.22461067377943        6.98370585676104
H           27.86942914061139        1.55626452992714        6.69191587907027
H           26.60904459236914        3.54668821226612        6.93887480424862
H           26.09923342474226        5.90934168964542        6.51218184103860
H           25.58033234886184        6.70279339261298        4.24829876917663
H           26.04259801641822        7.10752536003335        1.95889732302799
H           25.02553823634384        6.44161782852276        0.65393037588588
H           24.30860586566567        6.77813257489388        2.25178048668914
Fe          63.18379451904570        0.10004720857273       -0.15335755895741
C           66.54916223652656        0.43181601993242       -0.38631090887313
C           65.92494255983590       -0.42237610837586       -1.27185152061029
C           66.62571653417807       -1.18591528470543       -2.26019437236668
C           65.69220475890029       -1.90022594079333       -2.93124418599006
C           64.41978402020244       -1.55283864968007       -2.36847437863061
N           64.57885083041991       -0.66955666053942       -1.33489118855589
C           63.20461680732807       -2.02285691849187       -2.85189907476460
C           61.98341021475416       -1.63792805211729       -2.32049915282361
C           60.71947140951119       -2.02239718087809       -2.87397181055615
C           59.76418763912641       -1.44892300008312       -2.10406162430430
N           61.79811811332720       -0.83203949354107       -1.22234115994975
C           60.44701201572467       -0.72618801740005       -1.07630531705429
C           59.78120897111528       -0.07822164631928       -0.02852152781086
C           60.45237916475058        0.57573088357794        1.01246846734254
C           59.77781635519950        1.15871849585088        2.13052764107298
C           60.73376843892394        1.71299162934295        2.91347946015707
C           61.98756862620210        1.48376423540371        2.25989120586694
C           63.19685684365587        1.97884337506887        2.71973560874834
C           63.20578436032346        2.79945475755797        3.96228111132034
C           62.65716840313485        4.08883164640654        3.96217650007456
O           62.14144201202448        4.51319604723150        2.77908244131890
C           61.57943805395847        5.80473823517007        2.66294585783379
C           62.67111366638811        4.85995618899031        5.12393058884301
C           63.22909443050877        4.33657538861067        6.28055160158990
C           63.77699472947258        3.06293360716132        6.30410207739210
C           63.76881099466947        2.29345987691720        5.14097511727732
O           64.27610350820797        1.03556764245464        5.06254623977012
C           64.86070135322242        0.42673242920001        6.19606178489304
C           64.39940593841109        1.77631898596939        2.05375430720338
C           65.64516400620556        2.35508269933222        2.46465246969953
C           66.57998688612928        1.94370529790899        1.57609861019076
C           65.90499933383261        1.10732934027597        0.62946058304827
N           64.56945478389414        1.02371673990811        0.92412512423916
N           61.79932513632764        0.75707924588056        1.10731965832665
C           63.21059290590998       -2.95680361076708       -4.01096328627006
C           62.81047704596801       -4.28965242351808       -3.84312894901330
O           62.44019938759940       -4.64372692458382       -2.58504086019993
C           62.00919841829286       -5.96091528223139       -2.30789370957009
C           62.81953017775781       -5.17011719732059       -4.92447378407089
C           63.22072122289493       -4.71300455822624       -6.17053853437203
C           63.61447309339898       -3.39734301688714       -6.36207123284695
C           63.61141953517061       -2.51766409147455       -5.28008044100479
O           63.97039588177248       -1.21004270688634       -5.37061185105621
C           64.40700334587905       -0.66988444621505       -6.60140112377056
H           67.62238329232397        0.55819423089170       -0.47694947744835
H           67.69507033442476       -1.16906977658512       -2.40073506911049
H           65.83691728805032       -2.59469713632132       -3.74273177365923
H           60.59265817310424       -2.64528372329700       -3.74441658031881
H           58.69215957318695       -1.50749096636054       -2.20374448522563
H           58.71091596678974        1.13309156287860        2.28440313152550
H           60.61308348527180        2.24015462276854        3.84582756527462
H           62.31912835741801        6.58535475415381        2.87820967554342
H           61.24921115342116        5.89958175001445        1.62687095163282
H           60.71676999806431        5.92909229114350        3.32866214029153
H           62.25309900759294        5.85764937321691        5.13406588190292
H           63.23756008679856        4.93561043379128        7.18454646283534
H           64.20464703580670        2.68025577724679        7.22110502793489
H           65.18766448461892       -0.56360212171433        5.87386226328084
H           65.72863493318039        0.99375045135535        6.55401364883390
H           64.13639008119975        0.31898634664973        7.01256501447164
H           65.77153756716461        2.99523781483223        3.32285596775472
H           67.63473256618371        2.16821946620820        1.55061317776484
H           61.75813896575043       -5.98063253945874       -1.24581945351542
H           62.80206604940254       -6.69275918087771       -2.50437282267481
H           61.11977748691177       -6.22397396659633       -2.89317436600662
H           62.51826869387921       -6.20199695303678       -4.80357467018121
H           63.22627131658781       -5.39750361908995       -7.01166947476139
H           63.91909485136154       -3.06702987282450       -7.34609117768014
H           63.62191529892722       -0.72359859205444       -7.36533572875172
H           64.64556762718878        0.37716768056675       -6.40568422854675
H           65.30529537898165       -1.18126354234029       -6.96823703856000
C           30.87934786399664        0.04451390702459       -0.06327237639605
C           32.10531535547215        0.03954795617017       -0.06011712507356
C           33.44592047166807        0.02780546708778       -0.05359351035694
C           34.67808399833683        0.02040891495455       -0.04291836212582
C           36.01383998993840        0.00982524208976       -0.03130543213833
C           37.24606644585233       -0.00087594721772       -0.01858176787890
C           38.58641802860971       -0.01003499777271       -0.00737695412288
C           39.81255110120465       -0.01887788140053        0.00263547586922
C           49.44890765661138       -0.12012158496299        0.03512992759025
C           50.67554489408256       -0.13471338629252        0.03999959305010
C           52.01488892304880       -0.14710344483919        0.04375042146328
C           53.24790845808644       -0.15118210153531        0.03999879422606
C           54.58268823451149       -0.14931333295261        0.03490418950929
C           55.81549899251983       -0.14178901144252        0.02442254502662
C           57.15491913753134       -0.12450176143014        0.01372266447940
C           58.38125876428467       -0.10759340549265       -0.00583839537500
Fe          44.63155926999641       -0.04096232565926        0.01804829544563
C           41.21342987867297       -0.02288978084949        0.00769338408493
C           41.87974480128697       -0.10751968951619        1.23641594275617
C           41.20003266888563       -0.22093630680734        2.48876969170117
C           42.15344221253938       -0.18371056763809        3.45079368794219
C           43.41054174704504       -0.04144057416098        2.78066375728449
N           43.22817112132372       -0.02786580705548        1.41954184590373
C           44.62347525671978        0.11228734806258        3.43805748727626
C           45.83926886450303        0.20719480460503        2.77610126541420
C           47.09449042641211        0.39750486895185        3.43786909966776
C           48.05300477561826        0.33643899818109        2.48217579705566
N           46.02825074446580        0.07358421041057        1.42188522435878
C           47.37808931031757        0.11808382751200        1.24117373615184
C           48.04949445241926       -0.09320272372398        0.02979659102113
C           47.37977754511888       -0.26804797253052       -1.18823311205306
C           48.05584313808370       -0.48605784195488       -2.42866342597611
C           47.10413895039989       -0.48288616573743       -3.39323922200813
C           45.85157849236633       -0.26223631184003       -2.73613551177391
C           44.64306670540046       -0.12401000461902       -3.40406558215700
C           44.65265512309912       -0.14434920083306       -4.89248241536864
C           44.10025737836946       -1.22480969564479       -5.59321859889741
O           43.58124193439696       -2.22285244627530       -4.83184931557190
C           43.00377243951896       -3.36136491401845       -5.43877298036360
C           44.11525943706881       -1.24073501981655       -6.98760028636901
C           44.67607733863300       -0.17451664391760       -7.67421233245198
C           45.22528237344076        0.90677496641715       -7.00189448776809
C           45.21669181307198        0.92098166228480       -5.60756024574270
O           45.72165994955167        1.93554704569013       -4.85901810177243
C           46.30824393190165        3.06207306716847       -5.47935973911295
C           43.42772673638054        0.02875232395444       -2.75202184544777
C           42.17505182499133        0.18321283545873       -3.42776370282283
C           41.21522379704432        0.19959462661389       -2.47166814015595
C           41.88707551749439        0.06686068803849       -1.21686752128457
N           43.23656279430907       -0.00757965889831       -1.39218940588193
N           46.03433798989182       -0.16398453766875       -1.37847372599147
C           44.61986735989196        0.17091028792828        4.92530914149569
C           45.17241332861999       -0.87562182885436        5.67637808808774
O           45.68518759092697       -1.91166404931120        4.96323460814620
C           46.26030079693660       -3.02186270159419        5.62262010960457
C           45.16307841415718       -0.82345937747923        7.06985451484929
C           44.60764127521236        0.27640409713802        7.70583082985730
C           44.05854309256706        1.32496839754259        6.98349517338248
C           44.06162764237707        1.27129575193591        5.59007007860013
O           43.55594798370817        2.25004785386706        4.79553644278103
C           42.96966963482505        3.40397549647505        5.36353384896024
H           40.13160700565922       -0.31344330788015        2.60041812639285
H           42.02811755342031       -0.24173466739428        4.51969791597900
H           47.21504541942213        0.55025942443681        4.49793858573572
H           49.12191065291023        0.42594243098594        2.59163267270605
H           49.12118268186427       -0.61597143360248       -2.53221772607527
H           47.22746967113583       -0.61430648804968       -4.45592489976361
H           42.14561123195739       -3.09049002621738       -6.06564607459224
H           42.66360494331269       -4.00067662651355       -4.62210080975975
H           43.73650404612442       -3.90881103417974       -6.04387256526318
H           43.69566553490813       -2.07177157127991       -7.53846563514344
H           44.68526900845509       -0.18651658528740       -8.75856870139184
H           45.65416525469947        1.72580227702653       -7.56348865986192
H           46.63071591827137        3.71996856319439       -4.67028985698207
H           45.58635211620658        3.59427715212463       -6.11054006797418
H           47.17920597024466        2.77986016074824       -6.08312946469419
H           42.05688527959276        0.25989746660350       -4.49629537747423
H           40.14737822315756        0.29162040803028       -2.58890311811205
H           45.52727435941588       -3.53692963975440        6.25512948925798
H           46.59592069283445       -3.70075998975668        4.83657909439637
H           47.12118904178481       -2.72448765155224        6.23349740550840
H           45.58267380150330       -1.62794011405414        7.65882102630689
H           44.60254100476927        0.31727850480998        8.78950475616251
H           43.63369969021022        2.17142228993256        7.50612228449349
H           43.69240776964125        3.96601991159535        5.96725044080893
H           42.10043958166358        3.14961093133314        5.98201787947150
H           42.64453124859041        4.02272189549422        4.52518840689989
