118
 energy: -200.180760979138 gnorm: 0.000485264271 xtb: 6.5.1 (b24c23e)
Ni          15.22103917786584       -0.05350710244165       -0.03523388220765
C           11.83578814659712       -0.07221107787095       -0.15375355431356
C           12.48774968042515       -1.28078313735970       -0.01563746845563
C           11.81745337034597       -2.53625961258464        0.13027284972567
C           12.77655816950890       -3.49234188543583        0.12151174880815
C           14.03168439883795       -2.82145162485526       -0.05121710152167
N           13.84672518056154       -1.46104665539917       -0.08138307245373
C           15.24368355654594       -3.46954488597759       -0.25519310055576
C           15.26274495405918       -4.94793566223888       -0.34863673764120
C           14.56267062663578       -5.60508550089400       -1.28569520241592
C           14.55411270080056       -7.10838650090065       -1.38342882904196
N           15.66438399544009       -7.69498007426033       -0.62818828352165
C           16.21796411342984       -7.02397495785919        0.43127270232761
C           16.08303330020931       -5.69603941324831        0.59357907410283
C           16.44323994632600       -2.77956921395857       -0.38467645773578
C           17.69567144428497       -3.40439930185554       -0.68222393614975
C           18.64196556471684       -2.43639670713620       -0.61701406132425
N           16.61735218580316       -1.42883067506662       -0.18606996103968
C           17.96773424768359       -1.22385381936673       -0.27979129480802
C           18.62824785490192       -0.02957157049379        0.02052657973851
C           17.94155550417900        1.15126458209839        0.31654986924308
C           18.58685517442080        2.36572216666740        0.70003626766965
C           17.62341196904665        3.31666852872076        0.76409396800543
C           16.39073033693116        2.68084322218479        0.41237562931096
N           16.59170744569898        1.33756643587839        0.18877433072049
C           15.18859462390180        3.35786268939009        0.24659355607899
C           15.18282330883902        4.83352627301807        0.37877435403679
C           14.43495700715906        5.45587988022459        1.30232116804263
C           14.40563701998354        6.95532060247111        1.44480074996306
N           15.53177263325781        7.57795032303928        0.74347361690047
C           16.13748659471294        6.94205982789502       -0.30890234839765
C           16.03039965193959        5.61677452792172       -0.50913565415315
C           13.99901291872103        2.70085359674154       -0.04241097423493
C           12.75058151176051        3.36230062615918       -0.28491804037676
C           11.80819337290978        2.39592298797022       -0.39475010486404
C           12.48229054622440        1.14454654818620       -0.23073425790490
N           13.83042998041989        1.33831846062094       -0.06005638877031
H           10.75277809188115       -0.07834939352213       -0.19587752328652
H           10.74960150618817       -2.65174479527308        0.22845015788607
H           12.65695118301821       -4.55878730606447        0.22274882878789
H           13.95273669793471       -5.08317511325398       -2.01384010832323
H           14.65475861619578       -7.42024338328947       -2.43175949826372
H           13.59090587632607       -7.50895227612094       -1.01498744453042
H           15.61368059107104       -8.69981323755888       -0.54314589417545
H           16.84155703860039       -7.63227797709915        1.07869950569472
H           16.56911126458361       -5.17537449874726        1.40633148096869
H           17.82404283837226       -4.44928910025280       -0.91332591296260
H           19.70389599877623       -2.52294909244706       -0.77965935533377
H           19.64202029548223        2.46410609797801        0.89624006270041
H           17.72830805582160        4.35715897389002        1.02489732711826
H           13.80043016712910        4.90647498525445        1.98797796213897
H           14.46971158879742        7.23547555050018        2.50510355389895
H           13.44979870648568        7.35673722174831        1.05883574955185
H           15.46784386956320        8.58364864328510        0.68086494644871
H           16.77580233388418        7.57584445033028       -0.91624565323847
H           16.55626833259443        5.12416723004217       -1.31458376774240
H           12.62466205071790        4.43009039267458       -0.36170284082465
H           10.74893452108017        2.50171838164545       -0.56816320964923
Ni          26.06936563748778        0.05979568447549       -0.02276106914124
C           29.45460525045150        0.10354144816248       -0.13469457753910
C           28.80264949883022        1.25432119466014        0.25955476960243
C           29.47294805175220        2.44923457470861        0.67148694572607
C           28.51384040784746        3.38491093744176        0.86814435233066
C           27.25871144245798        2.76671077804873        0.55549682905091
N           27.44367287990160        1.44448111168921        0.23406277915729
C           26.04670172236195        3.44346228744039        0.49544457285496
C           26.02763549063419        4.90745301554800        0.72151017686509
C           26.72762479708287        5.75043393332056       -0.05271604345776
C           26.73617771017343        7.23967444426108        0.17450483042945
N           25.62598046001880        7.65046808307887        1.03815784427745
C           25.07249008568115        6.76768132968178        1.92894229718430
C           25.20742812039125        5.43586115350122        1.80241320112977
C           24.84713887414263        2.79735182369967        0.22092589250178
C           23.59469495626546        3.47148089427748        0.06450847930430
C           22.64840474541668        2.51204109956170       -0.07958492972307
N           24.67303388104924        1.43546702685399        0.12494610440210
C           23.32264793163758        1.25537779499978       -0.01054328609695
C           22.66213201813929        0.02446907104006        0.02639840805191
C           23.34881235084422       -1.19239001225740        0.06199587009301
C           22.70349716329991       -2.46085312268995        0.17579895430590
C           23.66694040638939       -3.40338757930078        0.03426624160409
C           24.89963185435752       -2.70688578893309       -0.17272157283733
N           24.69866200677745       -1.34692486459217       -0.10276652374158
C           26.10178860275107       -3.33253631250376       -0.47988350595576
C           26.10756814192335       -4.80217995868310       -0.66751548848105
C           26.85534336680706       -5.60826670921719        0.10100302117274
C           26.88465575772808       -7.10334385786311       -0.08166886486650
N           25.75860040310493       -7.56091339890553       -0.90041142560213
C           25.15298946837659       -6.71395408083510       -1.79183543292614
C           25.26008767040257       -5.37658002951038       -1.70293327005765
C           27.29137237087927       -2.62880419713877       -0.62108699797725
C           28.53981526129605       -3.22280381356957       -0.99984315763949
C           29.48220239861071       -2.25537281152087       -0.89970968360254
C           28.80809665151612       -1.06834625243695       -0.47099217979783
N           27.45995127034080       -1.29422645303570       -0.34590402875066
H           30.53761470088064        0.11857564676865       -0.17453719470133
H           30.54080245565583        2.54096604693343        0.79213991723459
H           28.63344691172448        4.40478133968200        1.19589758835940
H           27.33748788323518        5.39699234869167       -0.87597043449586
H           26.63542855661975        7.76928264335849       -0.78244131641539
H           27.69942276842891        7.55183593200508        0.62024401478748
H           25.67670780710063        8.61362318480478        1.33690732673132
H           24.44898840006037        7.22282722371583        2.69192168117371
H           24.72143526270794        4.75286946197890        2.48451255960515
H           23.46631374066899        4.54161919441130        0.06312770149981
H           21.58646903500117        2.63148357499582       -0.21981699783534
H           21.64832637949065       -2.59905592280593        0.34627758182525
H           23.56203894015245       -4.47560804678600        0.06563627184454
H           27.48979693284363       -5.21884368873145        0.88866668704016
H           26.82046600772945       -7.60454576265137        0.89378536848878
H           27.84053864538159       -7.41258144930751       -0.54469260891443
H           25.82254105549681       -8.52973617374246       -1.17741384663385
H           24.51473663376889       -7.20259843662252       -2.52112077603901
H           24.73429298970027       -4.72256399367614       -2.38392509055234
H           28.66573950152231       -4.24924152573744       -1.30397343915268
H           30.54146712632878       -2.32149216419835       -1.09175059543244
C           20.03717179430602       -0.01428001937416        0.02969909733729
C           21.25320752484797        0.00756649019855        0.03207185272758
