114
 energy: -192.503248516091 gnorm: 0.000319141775 xtb: 6.5.1 (b24c23e)
Co          15.36112362353863       -0.04393785569060       -0.05415537698312
C           11.98594710140755       -0.07452104756309       -0.06191896468648
C           12.65395743269479       -1.23994017835605       -0.37116592907356
C           11.99724086135326       -2.46741271032218       -0.70349971316570
C           12.95517759062953       -3.42315854262663       -0.73651106683988
C           14.19804433014671       -2.77638643054640       -0.43232465647623
N           14.00749719675552       -1.43027067785518       -0.25017130434973
C           15.38552980575398       -3.45164627242276       -0.18412222141699
C           16.56260638910352       -2.78324506458332        0.11457203235402
C           17.81451076967779       -3.43797996427447        0.34879011722662
C           18.76113974403783       -2.47022095908659        0.38474141718498
N           16.73892653494974       -1.41874541738313        0.05527945820220
C           18.08807893025534       -1.22909472829908        0.16701139216344
C           18.75459071421640       -0.01708536739675       -0.02537200736438
C           18.06553251485158        1.18452805212223       -0.20382528423007
C           18.70959579618817        2.43585360274023       -0.44720986108047
C           17.74771070499989        3.38799513718671       -0.38174206655069
C           16.51835344693451        2.71300976960217       -0.09472195423051
C           15.32551339807540        3.35919473770673        0.19428035982016
C           15.31134871197151        4.83760435109591        0.28259918629948
C           14.50219934989300        5.58939029002411       -0.57067577381120
C           14.49277347293995        6.97352946190759       -0.48846464973248
C           15.28472999383585        7.62272675915879        0.44897039213767
C           16.09087567616493        6.88174868658728        1.30246791972701
C           16.10828348609274        5.49770043695392        1.21903872940101
C           14.14297267185634        2.65869113946430        0.39049914184244
C           12.88968037160453        3.27180917152962        0.72057412810563
C           11.94660637829716        2.30429515957516        0.63576280446571
C           12.62697973373633        1.09958919649957        0.26962926511960
N           13.98010035791756        1.31233340098388        0.18405978364517
N           16.71798211763613        1.35244264104083       -0.04670544137544
C           15.39702795100624       -4.93381229943163       -0.24359784667037
C           15.18314399124375       -5.59346886753479       -1.45387817546209
C           15.20005719824189       -6.97928093255462       -1.50766604450218
C           15.42631915281067       -7.72006519973868       -0.35562720477422
C           15.63737093608509       -7.06966937008280        0.85251630327816
C           15.62506322636916       -5.68400394172522        0.91010969783962
H           10.90236406183493       -0.08436661377397       -0.07173214660359
H           10.93586048740985       -2.56752029856177       -0.86624532822265
H           12.84101635434655       -4.47790455876134       -0.92714160036848
H           17.94437376494212       -4.50331129206540        0.44721858279243
H           19.82393212735765       -2.57356399571892        0.53180595136682
H           19.76334402949906        2.55553456687154       -0.64004253275466
H           17.84942761224244        4.45237052691081       -0.51761955026456
H           13.89293471754062        5.08447314698178       -1.31205514853149
H           13.86471486472694        7.54799082551993       -1.16033772606469
H           15.27388742142899        8.70482303174769        0.51399256747857
H           16.70915327543623        7.38415601506505        2.03812030858135
H           16.72957671361123        4.91969850172036        1.89406501231708
H           12.76203001670711        4.31078058035493        0.97790817124103
H           10.88293327661876        2.38041803257814        0.79645810632196
H           15.01905825556968       -5.01557316415460       -2.35654756855173
H           15.03729456203707       -7.48277837048762       -2.45416943848427
H           15.43842624278572       -8.80322684558851       -0.39933800563852
H           15.81219607006866       -7.64400936735859        1.75553724405758
H           15.77887834254529       -5.17693425235299        1.85610196097184
Co          26.17799907214460        0.04627081503060       -0.05210152997337
C           29.55317711472130        0.07714023168357       -0.05863448465981
C           28.88516624314859        1.25488834080455       -0.31697908754462
C           29.54188300340540        2.49563533805521       -0.59568914559294
C           28.58394403942864        3.45191182537352       -0.58717203586649
C           27.34107389907046        2.79254168857329       -0.31136501790876
N           27.53162955685676        1.43979108023372       -0.18780149278581
C           26.15358402662912        3.45638896125931       -0.03408336149229
C           24.97649863829583        2.77565795161966        0.23531826077783
C           23.72459386953491        3.41960460051740        0.49774566743241
C           22.77795834288929        2.45120059060464        0.49162331200620
N           24.80017467526405        1.41501616240558        0.11691133679222
C           23.45100977542207        1.22069644731977        0.22018333042609
C           22.78453649079044        0.01816790121256       -0.02474986452740
C           23.47363065814047       -1.17454667278602       -0.25511173744772
C           22.82955726958727       -2.41412158159810       -0.55257837611747
C           23.79143427033507       -3.36821109703474       -0.52849929060824
C           25.02078938510261       -2.70632483395447       -0.21243649201569
C           26.21362171067153       -3.36445825142894        0.04822470170977
C           26.22777629594604       -4.84530904725911        0.07226930703007
C           27.03692515760728       -5.55933624213735       -0.81284372063497
C           27.04634734987504       -6.94573968883741       -0.79081362133968
C           26.25438869396443       -7.63503006224088        0.11754602208348
C           25.44824108257593       -6.93181114653737        1.00241140388730
C           25.43083599579962       -5.54544507182036        0.97915977008616
C           27.39615767701693       -2.67313660554295        0.27468289440069
C           28.64944633675184       -3.30000970177995        0.57783120683945
C           29.59251832766004       -2.32972449681769        0.53511472053234
C           28.91214488978705       -1.11025876223693        0.22162563687908
N           27.55902103216121       -1.31908021067810        0.12693172347652
N           24.82116199745028       -1.34912892621834       -0.10531024764103
C           26.14210054384868        4.93973883010618       -0.02913639712460
C           26.35598386804988        5.65132355142467       -1.20963234287994
C           26.33906745730330        7.03816373465532       -1.20319661368009
C           26.11280643963793        7.72822722732638       -0.02007871871438
C           25.90175645830675        7.02598676523812        1.15868520623450
C           25.91406766302500        5.63912757564264        1.15605791270949
H           30.63676019253898        0.08740569991604       -0.06799825233707
H           30.60326395343380        2.60271552374405       -0.75393327821621
H           28.69810516809117        4.51394016275047       -0.73182535077668
H           23.59473552324512        4.47965816751776        0.64232846739848
H           21.71516767060771        2.54806171890139        0.64302668725067
H           21.77580786892723       -2.52531584729096       -0.75043270655561
H           23.68971366552990       -4.42568128155238       -0.71047720151864
H           27.64619487840226       -5.02270388841006       -1.53159580411040
H           27.67440935956908       -7.49048557025955       -1.48699433132881
H           26.26523408782695       -8.71892928631622        0.13552233795097
H           24.82996716416877       -7.46568803970670        1.71555715796050
H           24.80954830903433       -4.99729918993675        1.67865112680867
H           28.77709614613693       -4.34917586933855        0.78980561235486
H           30.65619105940602       -2.41275300053068        0.69235405521695
H           26.52006588737207        5.11316733734368       -2.13654395568336
H           26.50182872044741        7.58228392296960       -2.12694538197617
H           26.10070049933887        8.81226520539841       -0.01671661811393
H           25.72693198015347        7.56057507250456        2.08579293133434
H           25.76025015912589        5.09145996024203        2.07913982350027
C           20.16111659425802       -0.00621998120691       -0.03299766403668
C           21.37801794419243        0.00736032745287       -0.03334993554069
