234
 energy: -404.632827162976 gnorm: 0.000444056624 xtb: 6.5.1 (b24c23e)
Cu          43.24907311553682       -0.00557533720816        0.00566122087583
C           39.84252348129537       -0.03578887414298       -0.01820931770127
C           40.47807995394906       -1.26673837083064       -0.08123101126636
C           39.80332265743760       -2.53242223323418       -0.12061946187896
C           40.76248379801189       -3.49038819624190       -0.15784865324477
C           42.03297185603024       -2.81752419052245       -0.15074665981382
N           41.82887506234589       -1.46852837113073       -0.09703384848176
C           43.27742004937500       -3.45153681815210       -0.16621228022276
C           44.51018988465567       -2.79836165115637       -0.11961227361278
C           45.78764401138809       -3.44996693338963       -0.18221238605697
C           46.73374748062409       -2.47844276710536       -0.12634186009468
N           44.69883824482096       -1.44352486777527       -0.03898663677870
C           46.04239569900688       -1.22751819862505       -0.03744979603038
C           46.67824708377610        0.02506519353601        0.02384506488987
C           46.01940961508621        1.26582711848055        0.08048734316370
C           46.68738872387335        2.53215214879124        0.10998543576667
C           45.72347635309100        3.48665561108031        0.15350812710296
C           44.45846110959582        2.80825779045438        0.15870320813216
C           43.21388033809222        3.43985372529462        0.18713577472101
C           43.19898804283379        4.92230270746916        0.27248338543425
C           42.65069353615002        5.68554839310354       -0.75889690878437
C           42.63812831261817        7.06990416315112       -0.67623633819785
C           43.16751523674317        7.70776769508916        0.43738016613631
C           43.71294746519689        6.95518271808578        1.46857144291042
C           43.73166091611606        5.57088221830912        1.38726224581816
C           41.98120207639757        2.78449400016374        0.14320937603104
C           40.69859068241438        3.43032698278554        0.21238077652073
C           39.75731709417288        2.45610165523338        0.14962318839014
C           40.45528643074616        1.20628849445081        0.05153720444133
N           41.80207696218101        1.43383409690445        0.05409775301571
N           44.67210255999574        1.45589398398283        0.10460200037303
C           43.28914061444784       -4.93479297243649       -0.23855883907474
C           42.76464982028608       -5.59214424415199       -1.35196044533246
C           42.77715067441998       -6.97731849860730       -1.41870416008234
C           43.30788753135931       -7.72184624302440       -0.37413542176232
C           43.82943600866798       -7.07511783954258        0.73799581021492
C           43.82329199118022       -5.68994405845166        0.80606271978335
H           38.75741702496762       -0.04612104125202       -0.01202252386355
H           38.73195687783234       -2.65780187170775       -0.11293380003926
H           40.62879491395901       -4.56006456917897       -0.17661397810310
H           45.93726738108963       -4.51382410508939       -0.27100339642543
H           47.80614087246709       -2.58883928644104       -0.14970982068188
H           47.75747118209920        2.66402539217221        0.09239004895910
H           45.85306727238437        4.55673971794835        0.16750664066984
H           42.24757087303966        5.18940884718676       -1.63482743859893
H           42.21368754306985        7.65326368220485       -1.48585172730373
H           43.15510002604238        8.78990822552259        0.50151083687645
H           44.12528417838055        7.44839789146617        2.34188964817480
H           44.14736533752720        4.98398390113979        2.19880751440916
H           40.54526070848991        4.49316245333539        0.30869235149338
H           38.68387991107717        2.55971063740853        0.17384437570366
H           42.36013875519261       -5.01164646098313       -2.17374057110458
H           42.37073830373107       -7.47757939263978       -2.29087847610261
H           43.31494552830431       -8.80466538083838       -0.42674996105486
H           44.24282385003804       -7.65218613201704        1.55779146582848
H           44.22073167084059       -5.18655501354994        1.68044998259140
Cu          83.67337358716725        0.06038025104301        0.02116352877767
C           87.07985630811905        0.08428463840475       -0.02266054703405
C           86.44657100393961        1.31800733198143       -0.02985756235643
C           87.12411671191319        2.58279858276312       -0.02281471436336
C           86.16706712854062        3.54355491873728       -0.01438408222490
C           84.89499597416396        2.87371168705086       -0.02482793992826
N           85.09618495105670        1.52316260873471       -0.02760907943399
C           83.65207642353025        3.51057442572456       -0.00356084296269
C           82.41796493466302        2.85879514691065        0.02553463954020
C           81.14166531399998        3.51527136659702        0.00134136265693
C           80.19358097811021        2.54427177657997        0.02055129207008
N           82.22647417221346        1.50215905440665        0.04774889478909
C           80.88241430771255        1.28912642593690        0.04878343843314
C           80.24405970706486        0.03633284630133        0.05850840061304
C           80.90060905067068       -1.20696927575459        0.05817662787064
C           80.22982948649913       -2.47199050765762        0.03828347120268
C           81.19168668929474       -3.42954055293409        0.03459199994667
C           82.45839391141290       -2.75477138740816        0.05984642605863
C           83.70157145390026       -3.38975966349565        0.05042312231311
C           83.71371626067223       -4.87458830965275        0.06644403442708
C           84.25400454301442       -5.58893898840971       -1.00354653090755
C           84.26423423316022       -6.97564386236290       -0.98704209353637
C           83.74020085175422       -7.66486647609789        0.09816202608815
C           83.20284311627185       -6.96123437569090        1.16743911302436
C           83.18674577493958       -5.57455454611371        1.15245101360674
C           84.93564233561639       -2.73587819003747        0.02683254135272
C           86.21712169919893       -3.38695420433685        0.05764717491364
C           87.16035709335384       -2.41290290943736        0.03322254059644
C           86.46482231695744       -1.15845432306763       -0.00338891773218
N           85.11753468497933       -1.38302205649468       -0.00200537072248
N           82.24762681503894       -1.40080266937860        0.06544372892202
C           83.64320622185409        4.99556484451477       -0.01515207384098
C           84.16049724400374        5.69643293250442       -1.10516920331065
C           84.14916950276979        7.08318107047758       -1.11653077027308
C           83.62655680029629        7.78591180924790       -0.03943009653958
C           83.11264771002905        7.09573890668487        1.04994235185120
C           83.11793953669034        5.70893591875472        1.06281264997243
H           88.16500198419166        0.09237757935273       -0.02289670531579
H           88.19582299775820        2.70537916690073       -0.01822457263699
H           86.30333942797360        4.61283548143046        0.00856061292897
H           80.99385873824374        4.58234457281355       -0.03836256383941
H           79.12132697289138        2.65794782068542        0.00977013550989
H           79.15934192108242       -2.60073172660458        0.02244781673745
H           81.05941187315517       -4.49895708287861        0.00442118507255
H           84.65268037697072       -5.05229660330193       -1.85736309901550
H           84.68255399534652       -7.52048437582386       -1.82614298985053
H           83.75053009432308       -8.74886105410684        0.11050433910131
H           82.79474989012328       -7.49478600955769        2.01877048608935
H           82.77760751784588       -5.02636486061228        1.99385656090986
H           86.36865483567105       -4.45338969081728        0.10395372713083
H           88.23366419565018       -2.51992094676440        0.04530535282978
H           84.55813363510688        5.14888290496775       -1.95249625057214
H           84.54961834128800        7.61743515460337       -1.97107080875761
H           83.61979186864876        8.86997219508524       -0.04905307962069
H           82.70585133263137        7.63998906611682        1.89505869004813
H           82.72671836059205        5.17150639810226        1.91954884258964
C           49.30646441605717        0.04626655831180        0.01777102815566
C           48.08454187467543        0.03763431749552        0.01877934628674
C           50.65632650064983        0.05292029575177        0.01523491485446
C           51.87841630376440        0.05577802600658        0.01374564455093
C           62.78574088284097        0.04269497962892        0.01607072766263
C           61.56337803285543        0.04500494759095        0.01541532967986
C           64.13538997413708        0.04082417755400        0.01766234045522
C           65.35776484288088        0.03799204374630        0.01929484242327
C           76.26568594853099        0.01775469424739        0.05882482012802
C           75.04355279192455        0.01675718503565        0.05609306542354
C           77.61566290955186        0.02061508518858        0.05976988018598
C           78.83762301354457        0.02690226866119        0.05852251374194
Cu          56.72081450368477        0.05103589183754        0.01434483177782
C           53.28411888947335        0.05514264571061        0.01311310341693
C           53.93124241151158       -1.19367864817794        0.00827746507310
C           53.25212461027782       -2.45357147936771        0.04946335969417
C           54.20744103238228       -3.41789890837992        0.03087632231891
C           55.47682634348742       -2.75140978222067       -0.03051704506070
N           55.27558666710424       -1.39652266022895       -0.03779691778102
C           56.71635446297828       -3.39331846520905       -0.05608222365452
C           57.95736889692051       -2.75356053429659       -0.05702792504144
C           59.22482259152497       -3.42029301718086       -0.14734501175994
C           60.18274440506396       -2.45847687361448       -0.12808455680546
N           58.16230590633842       -1.40061963724328        0.00512309624718
C           59.50725741373349       -1.19962999934518       -0.03387988578728
C           60.15781199271952        0.04668964131438        0.01457773314957
C           59.51007725215479        1.29447661865823        0.06360436184245
C           60.18872608748592        2.55144194809705        0.16028480789820
C           59.23322600705892        3.51560319893886        0.18157422467005
C           57.96408669913438        2.85231522756785        0.08946714418871
C           56.72460829281638        3.49511842349371        0.08901301402079
C           56.72684678675487        4.97975886247520        0.12187399774961
C           56.16696195983178        5.66400397076444        1.20134839929330
C           56.17462882906945        7.05048109368038        1.23236640933071
C           56.73506149388472        7.76920301552231        0.18516682837685
C           57.29085586256603        7.09550149268516       -0.89399102947204
C           57.28990612132344        5.70907082299287       -0.92600872349787
C           55.48354131493287        2.85623962782753        0.06039310778934
C           54.21588018119548        3.52585512765507       -0.00267220679923
C           53.25823363703781        2.56385679248834       -0.02351215276369
C           53.93421404975232        1.30233092489519        0.01821528222836
N           55.27900607359066        1.50185456690028        0.06614644881649
N           58.16567099924691        1.49894318073100        0.02456431143165
C           56.71499758608526       -4.87808696805287       -0.08376853163154
C           56.15586226498034       -5.56511174987135       -1.16185573995595
C           56.15920815589924       -6.95171933491564       -1.18693129671729
C           56.71419260788470       -7.66772194177257       -0.13498817330671
C           57.26916105964364       -6.99119994779781        0.94275453049383
C           57.27322705491316       -5.60463754481236        0.96857765043502
H           52.18163460423451       -2.57497178111835        0.09527394045755
H           54.06876169701048       -4.48626661033166        0.06875798539244
H           59.36029749611291       -4.48658756112490       -0.22933069597176
H           61.25279564464017       -2.58092008148273       -0.18060490954651
H           61.25909497794269        2.67089245716052        0.21317843159162
H           59.37143213855284        4.58134487007747        0.26604796364469
H           55.73917493623458        5.10370762345892        2.02531636552434
H           55.74182024140546        7.57203594915429        2.07889529286139
H           56.73863639382333        8.85304499742884        0.21000946231918
H           57.72667147709613        7.65235180343767       -1.71612128654528
H           57.71440016055498        5.18408830445488       -1.77457256821839
H           54.08004695168943        4.59459860208531       -0.04031445784899
H           52.18809231761973        2.68757423776137       -0.07124726804405
H           55.73192606030707       -5.00692235524040       -1.98924946924324
H           55.72667853757137       -7.47556518975737       -2.03225062152850
H           56.71387475919137       -8.75166119434202       -0.15496631619599
H           57.70113224781040       -7.54590592161369        1.76839048602989
H           57.69758074567306       -5.07735866287906        1.81584645554486
Cu          70.20073670392651        0.02693825154843        0.03205354890051
C           66.76333609737064        0.03484703508211        0.02222696879804
C           67.40954669319231       -1.21466072680683        0.01725995919016
C           66.72955555500984       -2.47402264315147        0.05466688973588
C           67.68418110160465       -3.43911355792259        0.03511266349235
C           68.95415994953757       -2.77351876695493       -0.02222722460836
N           68.75393347540682       -1.41849146384931       -0.02654773677102
C           70.19316513349131       -3.41678304620774       -0.04584070181756
C           71.43494811568915       -2.77865321176701       -0.03829777171610
C           72.70234985447647       -3.44648023442377       -0.12233040596991
C           73.66115099005977       -2.48585986283072       -0.09343476020685
N           71.64089930974853       -1.42610230074172        0.02894844075051
C           72.98627219969261       -1.22646444899783       -0.00115364038498
C           73.63777601916473        0.01899244260387        0.04956212645595
C           72.99162945781782        1.26768167497659        0.09135847066990
C           73.67158606278235        2.52445031212760        0.18394707080941
C           72.71721421322158        3.48977163513718        0.19697377968828
C           71.44754395778627        2.82733784822444        0.10482751785808
C           70.20868489718929        3.47094462901667        0.10070117724346
C           70.21142815478800        4.95574819230652        0.12933674867543
C           69.65372863304133        5.64261801744073        1.20828592579590
C           69.65823268632559        7.02916708716052        1.23429798590573
C           70.21316664348613        7.74530942284977        0.18239074767861
C           70.76780644917065        7.06893173863758       -0.89563786715241
C           70.77074254149220        5.68233557067859       -0.92235856824168
C           68.96697855550298        2.83312717069250        0.07272242306041
C           67.70030740776757        3.50441677236593        0.00910073436983
C           66.74135556465278        2.54369247094477       -0.01237369722323
C           67.41544718087397        1.28126564586755        0.02945156607975
N           68.76055566673497        1.47898577110212        0.07862232902259
N           71.64771372101569        1.47352254183626        0.04674622644234
C           70.18957037573310       -4.90138293210051       -0.08003502419867
C           69.63166782075562       -5.58251717130218       -1.16248830091365
C           69.63106481782854       -6.96901427556545       -1.19308115183957
C           70.18106032127386       -7.69081124072232       -0.14245729771124
C           70.73562404317411       -7.02017660731443        0.93918288357569
C           70.74345795292830       -5.63375032978902        0.97060566572867
H           65.65894322814968       -2.59493440695049        0.09863448659456
H           67.54473368840698       -4.50744940395612        0.07053095433497
H           72.83734881642287       -4.51262992621624       -0.20680952231964
H           74.73147629045712       -2.60891797737434       -0.13878107623649
H           74.74196756212729        2.64258156457309        0.23960246081299
H           72.85627273627050        4.55589343845727        0.27532746347478
H           69.22963227171790        5.08412690551931        2.03538190437184
H           69.22678500187958        7.55276581246554        2.08024319544170
H           70.21335979971317        8.82924671774901        0.20274627328685
H           71.19988519185027        7.62383471034383       -1.72107071782523
H           71.19441710223454        5.15534945429895       -1.77009115808145
H           67.56597176912916        4.57334276063503       -0.02826270429550
H           65.67146190152877        2.66928808773670       -0.06046368152346
H           69.21157381138286       -5.01981309727791       -1.98878287957489
H           69.19952745235480       -7.48820490804131       -2.04168597157256
H           70.17745434046218       -8.77467139741983       -0.16651181504329
H           71.16378458483121       -7.57943693631915        1.76370662843946
H           71.16680986550824       -5.11108821642706        1.82115285462486
