152
 energy: -259.110473468440 gnorm: 0.000479940960 xtb: 6.5.1 (b24c23e)
C           10.84448753563494        0.00183365346510        0.10993044738014
C           11.45503706136919        0.00030846248244        1.35745797276325
C           10.81293608237334       -0.04699951619520        2.62711634926515
C           11.78166141283268       -0.01824381747953        3.59044065068474
C           13.04697982158621        0.04602181281515        2.94021505136299
N           12.79935481606302        0.05587440860057        1.59629786934226
C           14.30941118235619        0.09002161256200        3.53975978762961
C           15.52790105738375        0.10958406024549        2.86068559473534
C           16.81723262695636        0.13020975636395        3.52693990477899
C           17.75057394655021        0.15095624366255        2.55276618606916
N           15.69837355896448        0.13238852984576        1.50964265590721
C           17.02900704381740        0.15127661713168        1.29456618522094
C           17.67647616743927        0.17392210448829        0.04189679712663
C           17.03917763263910        0.19509994350803       -1.21347802290678
C           17.67484222855565        0.23750919622844       -2.48296063127345
C           16.70031599415219        0.26105412970808       -3.44197869967737
C           15.43878190535304        0.23151987000839       -2.78566698293503
C           14.17659362031842        0.24024130721065       -3.38445167464822
C           14.15283521332799        0.25268371544939       -4.87844547178575
C           14.33522751751748        1.39206001049464       -5.66663689626056
O           14.52597117856062        2.65677357946971       -5.20589939517654
C           14.13642784484314        3.08071467855879       -3.91228677123547
C           14.35456586400257        1.28036018674320       -7.06287240449521
C           14.18230666674560        0.05298571656246       -7.66925233232066
C           13.97990870655481       -1.09121946403862       -6.90655474210357
C           13.96881957426669       -0.98801767213057       -5.52037525536912
O           13.80021538788404       -2.05088756907587       -4.68819263723012
C           13.57713504140243       -3.34324462668347       -5.21475862051566
C           12.95853190721409        0.16551356560660       -2.70458549753110
C           11.66333217945995        0.14057764306576       -3.36494694816468
C           10.73742453590155        0.07167917345904       -2.38700180206666
C           11.46674905187129        0.06202837081688       -1.13063605850387
N           12.80126497143133        0.12490490780943       -1.36001176197503
N           15.69557760339843        0.19334915400064       -1.43983560632368
C           14.33151555917522        0.04318868256802        5.03265796958451
C           14.02493660742712        1.12802711832519        5.85893190291117
O           13.70624784051346        2.38019485267668        5.43353279731322
C           14.13320117401692        2.90359595505220        4.18842605989755
C           14.00509450343766        0.96558585335127        7.24954532494800
C           14.30028756272208       -0.25871120710514        7.81411960027751
C           14.62899690904700       -1.34646107343922        7.01399968419807
C           14.64059589279022       -1.19364451693294        5.63212748857330
O           14.92474580311959       -2.20368812439357        4.76658158904653
C           15.28988377150630       -3.47998774503155        5.25141371232393
H            9.76034628029641       -0.04595918651010        0.11438091443268
H            9.74519561695024       -0.09617175480675        2.77021636711497
H           11.64291113904159       -0.04162572081916        4.65923521372565
H           13.51601315257825        0.07752408631430        0.87877061018054
H           16.96042448853915        0.12373398329485        4.59552204580911
H           18.82457836802209        0.16695055338861        2.64837368644996
H           18.74251071763418        0.24904429143032       -2.63228534075034
H           16.83447162301468        0.29296816851160       -4.51102154195786
H           14.84615404604550        2.74717008565187       -3.14742934818054
H           14.13281168278541        4.17312427479177       -3.94062904455379
H           13.13288529910506        2.72351044127837       -3.65827842399915
H           14.50532026406567        2.17932360509344       -7.64701408341289
H           14.19819352668855       -0.02213708571689       -8.75066293880386
H           13.84149879382276       -2.04589195904322       -7.39579900939649
H           13.45672997133054       -4.00471537922182       -4.35480456384425
H           12.66632306733621       -3.37626652701065       -5.82477318902004
H           14.42852830648135       -3.68541107866417       -5.81552720749503
H           11.51515710162335        0.16748581879682       -4.43278958619117
H            9.66283377574963        0.03173571620768       -2.47473573879731
H           14.98250462340496        0.14745077280916       -0.71958687777562
H           15.16912366952157        2.62431886509824        3.97016975370124
H           14.06396017061222        3.99102485232797        4.27541607856724
H           13.48672889068374        2.57089958457669        3.36903661305240
H           13.75626083915548        1.82205373426911        7.86318095845866
H           14.28353769157350       -0.37481856199316        8.89188947242046
H           14.86290441854945       -2.29840462494479        7.47124098358714
H           14.47819209182445       -3.93808616332915        5.82954900789168
H           15.49246913697744       -4.09254880544930        4.37089193870905
H           16.19330214785230       -3.43035177908460        5.87119123142884
C           33.68334011363307       -0.00378410048942       -0.10985176989955
C           33.07281202642002       -0.11677995698268       -1.35226689021358
C           33.71494569158599       -0.27578711084213       -2.61278386617861
C           32.74614451529207       -0.33430948233547       -3.57469086147057
C           31.48076760947786       -0.21409833144693       -2.93259543316682
N           31.72839697752448       -0.08456662263008       -1.59488514730927
C           30.21827952715431       -0.22436143132633       -3.53353706909785
C           28.99979431723991       -0.14458321015059       -2.85893655735028
C           27.71052471069040       -0.18250492607653       -3.52456599089911
C           26.77712091062554       -0.07495954516410       -2.55619008200043
N           28.82920906554626       -0.00220916216319       -1.51524508494637
C           27.49858853563441        0.03633120312986       -1.30284625372754
C           26.85095996964761        0.16946325144501       -0.05712536822287
C           27.48814033469260        0.30098666623834        1.19156127338576
C           26.85246646183399        0.45494064277069        2.45235537579063
C           27.82699337147356        0.56235632323166        3.40565400437214
C           29.08851861112036        0.47495118295215        2.75453106085655
C           30.35073532315173        0.53642687097656        3.35029369798048
C           30.37437384160190        0.68040557833977        4.83734078085099
C           30.18817694978833        1.88440592243759        5.52178183766137
O           29.99414337976056        3.10279037070318        4.95068404867382
C           30.38807341760881        3.41263892242803        3.62636451765795
C           30.16809608930152        1.89647822450729        6.92238733047816
C           30.34358033077891        0.72797115284949        7.63488511213306
C           30.55019884672539       -0.47844238791173        6.97630412807557
C           30.56196500786408       -0.49812090589853        5.58641686543196
O           30.73452692769108       -1.62988460140177        4.85157139817469
C           30.96148627764843       -2.86982060480032        5.49054791325459
C           31.56886902695470        0.40329544795165        2.67957713096794
C           32.86411033282862        0.43858183108267        3.33944445045645
C           33.79017207093283        0.28577313815757        2.37121521433444
C           33.06090713924583        0.16441605744598        1.12064290518246
N           31.72627327426313        0.24495737839656        1.34376100353514
N           28.83176487156325        0.31867605107499        1.41726449642049
C           30.19632728968249       -0.40402218606415       -5.01630578389924
C           30.50401109172410        0.60288485652225       -5.93554905103509
O           30.82301844916503        1.88771977575906       -5.62233279186387
C           30.38987555278270        2.52077689908441       -4.43149680745476
C           30.52521277615326        0.31745947637903       -7.30615877412964
C           30.23001978667601       -0.95212856374753       -7.75983169496198
C           29.89982259777620       -1.96419609394381       -6.86642831763257
C           29.88705428401043       -1.68911327468699       -5.50362902916499
O           29.60154099629981       -2.61806967347423       -4.55196498676293
C           29.23661759269969       -3.93236046696479       -4.92185540814332
H           34.76757510869156       -0.04979566305878       -0.11020658087475
H           34.78275149291977       -0.33590484498942       -2.75115937786150
H           32.88494499991572       -0.45250514539626       -4.63717732916218
H           31.01170587332188       -0.00018820474645       -0.88204388424058
H           27.56743150472470       -0.28356491995133       -4.58839314972112
H           25.70314963747514       -0.06662493156395       -2.65316353945765
H           25.78476839415479        0.48001257671877        2.59983479402732
H           27.69275699159946        0.68817311677498        4.46773280143076
H           29.68180430829098        3.01217028922242        2.89100487011997
H           30.39002853506330        4.50333569980883        3.55896492343241
H           31.39308272221249        3.03629645853819        3.40834793492564
H           30.01423294606027        2.84307361569023        7.42474490499108
H           30.32704340076270        0.74857126168417        8.71869743188553
H           30.69125174159044       -1.38572083413064        7.54802732958418
H           31.08478766206169       -3.60439372365572        4.69257598513589
H           31.87191448409315       -2.84565032685557        6.10155448488596
H           30.11075840229977       -3.16035146641178        6.11881518146261
H           33.01224402021662        0.55943523542885        4.40077232284004
H           34.86483576287863        0.25563193685508        2.46196076916353
H           29.54489121746431        0.20956383300017        0.70390608938627
H           29.35301894473209        2.26150506194512       -4.19399652114636
H           30.45890812033483        3.59594819621731       -4.61554617551890
H           31.03236895267193        2.26377082661002       -3.58224413686328
H           30.77514630994658        1.11586338926115       -7.99324805220558
H           30.24784025628046       -1.16369842778436       -8.82297251439147
H           29.66580847166338       -2.95289718038873       -7.23748344498575
H           30.04893149789775       -4.44019607554058       -5.45588607920895
H           29.03268511166177       -4.46416682827373       -3.99062707452198
H           28.33403014080008       -3.93786107724838       -5.54479626809060
C           22.87798082331312        0.18280917329178       -0.01658292577302
C           21.64941894491826        0.18341392821313       -0.00273302312859
C           20.30544881297485        0.18201126378698        0.01352874517020
C           19.08131143252518        0.18076560269737        0.02911160955019
C           24.22197284223697        0.18037710704065       -0.03109585508456
C           25.44612739451737        0.17736274479368       -0.04575612214448
