171
 energy: -282.146408902978 gnorm: 0.000338468672 xtb: 6.5.1 (b24c23e)
Zn          31.37304673584595       -0.01028253004107       -0.00621434289230
C           27.95906364802353       -0.03553080039270        0.00094163273859
C           28.58810904028445       -1.27349420214891       -0.05757327063472
C           27.91420833357674       -2.54169697234978       -0.06988510200201
C           28.87248403212986       -3.50005114462875       -0.12957336577553
C           30.14428324612572       -2.82775723824193       -0.16613438544290
N           29.93660381415794       -1.48048950559146       -0.10846096825548
C           31.39466527080172       -3.45242465841094       -0.24082048406782
C           32.63363893345251       -2.80141960355279       -0.23991105100250
C           33.90490992093229       -3.44833465543003       -0.40530673702897
C           34.85507560819967       -2.48077644639019       -0.34621202761700
N           32.83612537616722       -1.45388368835265       -0.10137905002793
C           34.17874442603812       -1.23416798611173       -0.14460916345765
C           34.81924256893915        0.01527572500014       -0.00651367025524
C           34.16218407463737        1.25648863592588        0.12522374875361
C           34.82340645140886        2.52154930423419        0.24606040260063
C           33.85956305778164        3.47555810581985        0.29899002184382
C           32.59400224077125        2.80075105735376        0.22755174742973
C           31.34488091017915        3.43082732792404        0.22743943030617
C           31.33275912021461        4.91364884197414        0.32057602810123
C           30.83579746099236        5.68115426375509       -0.73351904827168
C           30.82919349476021        7.06553986861824       -0.65128208780148
C           31.31280356145992        7.69958790680040        0.48514943493023
C           31.80474994435201        6.94287045361800        1.53996064662403
C           31.81747929179614        5.55832298339629        1.45902657275481
C           30.10438395887273        2.78801156234520        0.14770485128202
C           28.82184915644597        3.43876420933995        0.19635278772789
C           27.87705789624344        2.46735695118364        0.13384343451284
C           28.56972066529145        1.21177595214854        0.05255875240566
N           29.91586404919076        1.43954513951623        0.06199489909091
N           32.81527048252105        1.45281400675535        0.12271081167725
C           31.41027298635647       -4.93452125921548       -0.32544831974041
C           30.81053237283850       -5.59357752821463       -1.39941246101875
C           30.82734617590627       -6.97856262713329       -1.47069854675901
C           31.43808941420433       -7.72227061149306       -0.47009470157592
C           32.03620320937718       -7.07446647773268        0.60235982804147
C           32.02544502136808       -5.68974372952605        0.67437628496297
H           26.87358137044886       -0.04440027926556        0.01832158707608
H           26.84379815090305       -2.67047042675084       -0.02992286770049
H           28.73524214296372       -4.56956488874015       -0.13684186528142
H           34.04996061842494       -4.50457412282771       -0.56545909341294
H           35.92139524860645       -2.59616298436122       -0.44712002241451
H           35.89103412914595        2.65979458353191        0.28361196480718
H           33.99362429918636        4.54280303303855        0.37132859738132
H           30.46820276182735        5.18757798543349       -1.62642629785919
H           30.44599098082318        7.65206824493656       -1.47906978898991
H           31.30616100946197        8.78187369147468        0.54856295095444
H           32.18020355951960        7.43316579765295        2.43142110465815
H           32.19163757211114        4.96856607694126        2.28856518160316
H           28.66928190431793        4.50293634825010        0.28054209097809
H           26.80405820583809        2.57889137585978        0.14758296863204
H           30.34456849725450       -5.01454525249422       -2.18907754579573
H           30.36213787172795       -7.47959490729763       -2.31249451986010
H           31.44842213491560       -8.80493034098123       -0.52610228189032
H           32.51280072270768       -7.65056233396642        1.38789047872209
H           32.48265087346839       -5.18566233505673        1.51871384815678
Zn          53.24495017276826        0.06223045820860        0.01289964679399
C           56.65899624684958        0.09726740930766        0.01482442105364
C           56.02624667477733        1.33470734294946        0.00962001694980
C           56.69646608920580        2.60433672425229        0.04781631772947
C           55.73529100663949        3.56149176219008        0.03030333259785
C           54.46533377672200        2.88747913754527       -0.03026487116596
N           54.67700314298125        1.53960403236824       -0.02891907962511
C           53.21304004194154        3.51106326976871       -0.07555585971784
C           51.97587108463784        2.85707280815612       -0.09862141122048
C           50.70243572406254        3.50675747252075       -0.23371270712327
C           49.75515307978790        2.53479330295642       -0.21433656947996
N           51.77746438993658        1.50428390453203       -0.01707669738641
C           50.43537916906671        1.28270284668806       -0.06738032532994
C           49.79900855693780        0.02643464856081        0.01735181423216
C           50.46007915819153       -1.21732172543665        0.09348356827479
C           49.80254492226263       -2.48841113880562        0.15847633644024
C           50.76910149664433       -3.44109811431947        0.16710520271259
C           52.03266098021550       -2.76016822710127        0.12404528134013
C           53.28357918604213       -3.38584585095379        0.09336504804241
C           53.30091468640248       -4.87131867970311        0.11671078817017
C           53.80029587305901       -5.58573674627338       -0.97300981422369
C           53.81336735432077       -6.97238768245489       -0.95656543546552
C           53.33375279231473       -7.66178898622347        0.14891281886233
C           52.83900990531018       -6.95819783112396        1.23860855387315
C           52.81983967230073       -5.57141724855125        1.22349470497851
C           54.52208611156426       -2.73629440252998        0.04146400014185
C           55.80656624688488       -3.38478017844479        0.05997988980859
C           56.74845920016240       -2.40878198308773        0.03950259340916
C           56.05203481831791       -1.15290392750079        0.01418625367410
N           54.70658423619285       -1.38483629723739        0.01543370466143
N           51.80749234660411       -1.40948504530156        0.08026498402537
C           53.19278516097355        4.99534363336177       -0.10054241582714
C           53.78579365303447        5.69822338513750       -1.15016436986428
C           53.76299967219968        7.08485058485515       -1.16744421545042
C           53.15299372603304        7.78642136392522       -0.13642386554328
C           52.56209968812927        7.09483855662653        0.91244827217579
C           52.57882840278408        5.70841303694666        0.93048861021041
H           57.74448218260620        0.10858265237601        0.03028790385580
H           57.76662238194162        2.73455684486384        0.08978031132055
H           55.86942688923420        4.63081212608505        0.06656551554126
H           50.55405055155567        4.56845163100750       -0.34815231115826
H           48.68836740006899        2.65136755262097       -0.30848243646123
H           48.73533419298017       -2.63108036171014        0.19133029170471
H           50.63811688474041       -4.51088704058714        0.19179293307490
H           54.16484667250526       -5.04857944122858       -1.84168744619303
H           54.19866821101241       -7.51718565610213       -1.81144818041634
H           53.34581342307187       -8.74581510344594        0.16111490582567
H           52.46653441082493       -7.49198354193055        2.10601401476271
H           52.44368883205970       -5.02344422553150        2.08032998829756
H           55.96229211684545       -4.45117528710815        0.09702452970314
H           57.82179208164362       -2.51762362427329        0.04723703804040
H           54.25091140441253        5.15227853208478       -1.96353940812958
H           54.22260270693396        7.62020883326720       -1.99098551801722
H           53.13758478952720        8.87038125886414       -0.15042577406354
H           52.08640923702431        7.63795075184868        1.72166713126184
H           52.12711411103387        5.16988919560404        1.75631078096156
C           36.22936534886903        0.02277670754099       -0.00756658328867
C           37.44791605436242        0.02499384985657        0.00156296971984
C           47.17043181422844        0.00943265486723        0.02682939198081
C           48.38893591050994        0.01430076861896        0.01609499689937
Zn          42.30935858519575        0.01560543242008        0.02537929516580
C           38.85733991929505        0.02294377637948        0.00991364374367
C           39.50672332115441       -1.22661873817178        0.09671657999851
C           38.84277257770574       -2.48579574506622        0.25181812477039
C           39.79963935969055       -3.44907654873316        0.23377566552030
C           41.06111230377919       -2.78575681367521        0.06478622126271
N           40.84905588798693       -1.43405725555323        0.00909888590186
C           42.30255270757387       -3.42358203801709       -0.03728341247742
C           43.54638780091778       -2.78720969866627       -0.11820697304195
C           44.80509506023139       -3.44937943077700       -0.31080681538799
C           45.76559263139114       -2.48970630626177       -0.29725717757588
N           43.76378959270072       -1.43921684787264       -0.01624771715659
C           45.10690104489354       -1.23399780311653       -0.09880244880108
C           45.76101672113367        0.00897547721280        0.03221954743081
C           45.11058345277543        1.25368299710328        0.16853341652850
C           45.77309188453238        2.50497691626641        0.38238157052395
C           44.81616271932860        3.46828050708198        0.39834971268906
C           43.55631099788833        2.81288099381908        0.19146704090579
C           42.31572243654325        3.45455049261994        0.10590702450574
C           42.31765491973882        4.93812914306132        0.14415366214352
C           41.63439367178592        5.62092902047575        1.15184335153517
C           41.63835773872334        7.00712895681015        1.18787943261743
C           42.31896280115690        7.72894711056880        0.21664023566529
C           42.99914717350664        7.05778987438726       -0.79054616883131
C           43.00187569564423        5.67152958374415       -0.82656565908563
C           41.07281713813837        2.82238692431758       -0.01165693157851
C           39.81555136175982        3.49216021259822       -0.18609598404465
C           38.85505673751342        2.53293113786735       -0.21834025242911
C           39.51250323441160        1.27002720970700       -0.06656629447621
N           40.85486467236763        1.47131311277548        0.03333608377198
N           43.76898835476897        1.46469628208048        0.07999159078992
C           42.30033110249670       -4.90737654835073       -0.06165416304989
C           41.62039019370823       -5.59878924150223       -1.06574207476751
C           41.62188499943439       -6.98528322619310       -1.08816628194375
C           42.29705006919646       -7.69894882541343       -0.10714483789723
C           42.97387433675781       -7.01927853505858        0.89655969970051
C           42.97862140652421       -5.63276688217368        0.91929139178490
H           37.78027210119492       -2.61306571203842        0.37623382132562
H           39.66450129269255       -4.51314039282242        0.34231002846754
H           44.93609238389477       -4.50968182943877       -0.45520912858384
H           46.82771736169592       -2.61719704860368       -0.42435125662225
H           46.83448205640669        2.62661452752103        0.52090561850795
H           44.95010279153215        4.52673660837050        0.55337042758412
H           41.11264679977142        5.05882156284290        1.91852589789462
H           41.10825610202046        7.52631058538437        1.97877221574420
H           42.31923481407017        8.81274395913457        0.24461460402474
H           43.52956754744208        7.61687595383672       -1.55351885612069
H           43.52303551713177        5.14955923264598       -1.62149911502908
H           39.68565431446778        4.55751647747852       -0.28816620181891
H           37.79391781117027        2.66562963571194       -0.34813896823315
H           41.10345170504429       -5.04332657107618       -1.84047252023334
H           41.09435070448612       -7.51125337650495       -1.87627518178897
H           42.29571269757071       -8.78296154209617       -0.12482984741339
H           43.50035889824261       -7.57179512104423        1.66702108390789
H           43.49717342888357       -5.10414521579805        1.71155280372193
