270
 energy: -541.165501785759 gnorm: 0.000597873873 xtb: 6.5.1 (b24c23e)
Ni          42.24964328024467       -0.00045229627834       -0.05085596311782
C           38.85276097720774        0.04220491778476       -0.12323942377610
C           39.51302887061282        1.25186244592670       -0.08463557461203
C           38.83825484259294        2.51316220259743       -0.04974948217115
C           39.79862401858653        3.46500943409834       -0.00197388558954
C           41.06017814724382        2.78378450366039       -0.01911076712258
N           40.87447795042312        1.42426517700497       -0.05989633421810
C           42.28647747251205        3.43333598910333        0.02770179112380
C           42.30312987188942        4.91757268510519        0.06876943116307
C           41.81313647739243        5.65349814460824       -1.00967112568799
C           41.83051338181068        7.04302731824131       -0.96959588993318
O           41.36325333851084        7.76882071847290       -2.01428275680562
C           42.33212414670382        7.69991574222443        0.15521618972387
O           42.33250256281696        9.07001491580167        0.16794430911761
C           42.81803732738055        6.96394512617214        1.23287466335689
O           43.29028175089612        7.67850058209892        2.30214631830229
C           42.80933268641787        5.57502322352661        1.19277155002740
C           43.49705771321116        2.75468454067201        0.03930907432062
C           44.76962989228277        3.41020454402385        0.04364410444228
C           45.71143236905478        2.43704826655066        0.04203207220815
N           43.65952112991669        1.38701682823661        0.01923841910477
C           45.01298803218452        1.19157893764277        0.02796731878393
C           45.66707566795512       -0.04349822435413        0.01504263746509
C           44.98359592800080       -1.26190589645112       -0.01639118433101
C           45.65182254263595       -2.52381424813894       -0.04575006018849
C           44.68707193295837       -3.47313014058777       -0.08352271025891
C           43.43057816592719       -2.78713782244328       -0.06784541789236
N           43.62576939856768       -1.42382517077693       -0.03551188384469
C           42.20413510701449       -3.43452956504193       -0.11323951662694
C           42.18344706029866       -4.91901612821799       -0.14729584115081
C           42.66187880871741       -5.65215797122153        0.93807221277660
C           42.63632493659780       -7.04178422570807        0.90496900214086
O           43.09140878796169       -7.76502526974247        1.95671748315200
C           42.13838060832973       -7.70148315178638       -0.21982590510943
O           42.12903880248679       -9.07171705996460       -0.22531963933832
C           41.66469161302718       -6.96825106728482       -1.30468159917185
O           41.19517574525064       -7.68537247804544       -2.37363859150466
C           41.68123049027920       -5.57924464743017       -1.27148039726737
C           40.99385718225191       -2.75377700376541       -0.13268657387656
C           39.71640666111912       -3.40456488205002       -0.14362603157116
C           38.77892252054823       -2.42863140395359       -0.15083639948754
C           39.48376438936845       -1.18375712886522       -0.13398813246750
N           40.84061891144685       -1.38983523178790       -0.11710393848732
H           37.76914379071744        0.05554560809832       -0.13941332154600
H           37.76654924803973        2.63285235677281       -0.05442272761830
H           39.67724085119665        4.53473000272213        0.04803109107273
H           41.43316155802722        5.15373412014745       -1.89130048042122
H           41.46075449983048        8.71116596304195       -1.79913113273979
H           42.71096489671427        9.36116385063361        1.01282603361466
H           43.60453235253517        7.08786837560115        2.99923514381951
H           43.17814947482216        5.00778100747369        2.03925496605698
H           44.91392192826736        4.47817234479242        0.03652904971316
H           46.78474504462697        2.53751576989676        0.04296406769484
H           46.72242155134696       -2.64982292776480       -0.04378333537692
H           44.80514690793880       -4.54336500009281       -0.12674288240850
H           43.03917535884980       -5.15009352485080        1.81952360815845
H           42.99041262444402       -8.70786203505032        1.74545647099306
H           41.75555247315918       -9.36468676345233       -1.07175367794917
H           40.89295926293229       -7.09610957530671       -3.07713908893970
H           41.32141895331634       -5.01419172347696       -2.12329952166920
H           39.56906168415496       -4.47229747911742       -0.13569763143959
H           37.70461976159572       -2.52245675412115       -0.15875972528493
Ni          97.95286730002023       -0.05492813004839       -0.01687278032235
C          101.34948466422216       -0.08802616662252       -0.10370697413126
C          100.68918106465844       -1.29403215367555       -0.20535968847118
C          101.36371554001681       -2.55048310748444       -0.32265877715047
C          100.40313731675556       -3.50087913895965       -0.39134854769086
C           99.14176903484912       -2.82243822822888       -0.32450120788274
N           99.32769082144871       -1.46800321784307       -0.20083595415354
C           97.91557931562066       -3.47331690238586       -0.35078959129977
C           97.89917619743630       -4.95163634628846       -0.48999629839525
C           98.37954196965717       -5.55070805687324       -1.65402350874477
C           98.36194326650450       -6.93483414725837       -1.78290538445492
O           98.81955697727076       -7.52809599110635       -2.91214016574103
C           97.87013285261438       -7.72385598859714       -0.74181717095950
O           97.86924424486327       -9.08546046410501       -0.89556944350089
C           97.39437368297484       -7.12463829452067        0.42162515045154
O           96.93172813491340       -7.96409826839673        1.40064280093912
C           97.40312924719538       -5.74113985323785        0.55041916517159
C           96.70535649794427       -2.80208410259731       -0.24659684086359
C           95.43264584655248       -3.45466359799067       -0.30606336777087
C           94.49135734957257       -2.48966307303486       -0.17662146659848
N           96.54327100253762       -1.44220192775806       -0.09884471227134
C           95.19011453714643       -1.25080915322068       -0.04930448363882
C           94.53638122068575       -0.02356696039729        0.09163003066069
C           95.21959824818713        1.19152926391298        0.18875016784724
C           94.55105360518615        2.44813458810794        0.30664892264093
C           95.51513783402531        3.39749823228603        0.35713204611051
C           96.77173033542775        2.71570934268839        0.28102945791511
N           96.57698256605245        1.35656387613268        0.16847202089434
C           97.99758067688873        3.36558131002025        0.29219350505961
C           98.01828790279936        4.84529213599337        0.41643786988218
C           97.55257247014254        5.45811963466668        1.57916763385023
C           97.57802780510941        6.84339777291219        1.69398976618163
O           97.13535494802939        7.44989976845274        2.82198986907993
C           98.06301568990092        7.61964343660136        0.64013509793777
O           98.07244831102285        8.98258202492070        0.78054756958570
C           98.52417453027560        7.00658394175970       -0.52195834553692
O           98.98151753524986        7.83393362746022       -1.51373270634186
C           98.50801006656599        5.62188814083898       -0.63660051152363
C           99.20775152337639        2.69176622255075        0.19198467008325
C          100.48492616372258        3.34079499135860        0.24701001664434
C          101.42273989373054        2.37142761654215        0.13633805844466
C          100.71831955290355        1.13150577372636        0.02140822376309
N           99.36142674047584        1.33402228620443        0.06211389483462
H          102.43310469732764       -0.09938433759023       -0.12129839863199
H          102.43540327830890       -2.66892045661742       -0.34201935814827
H          100.52413964808143       -4.56879322780269       -0.47197015032464
H           98.75212027229492       -4.94723545322510       -2.47159112162581
H           98.72287692941195       -8.48960090664106       -2.81240541201609
H           97.49785373741607       -9.47706068145460       -0.08902312505149
H           96.62372941550508       -7.46237788561217        2.16676151317695
H           97.04218686993508       -5.28120089977108        1.46283316839580
H           95.28776095533092       -4.51402114044470       -0.44095886895238
H           93.41810668069199       -2.59074121308365       -0.17381876410932
H           93.48060435328435        2.57151619335907        0.33777954336167
H           95.39646810304006        4.46594116015505        0.43154392829771
H           97.18532564834109        4.86463696221801        2.40638713198755
H           97.23266680843332        8.41009218951176        2.71082504081956
H           98.43448830682043        9.36477068121353       -0.03470507046541
H           99.27350118073124        7.32344333905673       -2.28029610919508
H           98.85830581735203        5.15103133699994       -1.54760798097645
H          100.63169748745905        4.40187577305954        0.36702960601484
H          102.49699943901493        2.46604937762151        0.13698533873113
C           47.07178778669392       -0.05891652812182        0.02882592766728
C           48.29602752865037       -0.06710811842975        0.04013384446567
C           49.63904229621595       -0.07300681125749        0.04744402897459
C           50.86960281634364       -0.07417671567104        0.05072769431610
C           52.20776123630394       -0.07386126299450        0.05027483694135
C           53.43836733118792       -0.07096607772469        0.04614474370663
C           54.78110479331064       -0.06602028966394        0.03688152082835
C           56.00556745384876       -0.06090588953396        0.02394369119317
C           65.63636348328734       -0.03385552478950        0.03926353169548
C           66.86082618364858       -0.02995859587650        0.05545670177042
C           68.20342990573290       -0.02895380840245        0.06826170661891
C           69.43411148093300       -0.02448890189721        0.07623106088659
C           70.77204515794247       -0.02156250036249        0.07931187479250
C           72.00275945910049       -0.01816849387582        0.07727273883077
C           73.34538376786217       -0.01425801623150        0.06927108609447
C           74.56989452209963       -0.01121025915646        0.05655315822664
C           84.19896926068600       -0.00141673446043        0.12544754669027
C           85.42322585021728       -0.00014501011584        0.14994659082058
C           86.76583134309281        0.00142082790679        0.16841147645338
C           87.99646422611757        0.00319914424681        0.17624082731265
C           89.33458932229274        0.00211717941851        0.17506789071297
C           90.56507242890181       -0.00038037421072        0.16572242032013
C           91.90794465689193       -0.00459296768118        0.14785931911735
C           93.13200308151946       -0.01130858875723        0.12502019409617
Ni          60.82118670276421       -0.04331577624616       -0.02748024383701
C           57.40893117876950       -0.05514999657420        0.00494643470591
C           58.08234831789074        1.14022243433396        0.27773274846474
C           57.41729988222269        2.35762961696682        0.61386349527464
C           58.36924852213469        3.32208988738193        0.65448106711343
C           59.61242778600151        2.68982901929133        0.33566262730745
N           59.42975626044078        1.33787115830009        0.15207858553041
C           60.81191423391861        3.37107558663179        0.16768183864284
C           60.80360675091990        4.85113706937251        0.23992988416440
C           61.56787913561784        5.51512732249158        1.20028769666843
C           61.56503860991996        6.90488664412861        1.28223019723073
O           62.29585039196989        7.56228760279611        2.21964794877925
C           60.79582658547832        7.65124601647459        0.38338401478811
O           60.77757175249170        9.00809390469802        0.43322487347135
C           60.03667633320116        6.97888076533062       -0.57830304046797
O           59.30963855209629        7.76921948180513       -1.43046874185494
C           60.02866579632680        5.59321261326653       -0.65357865330889
C           62.01764769921328        2.71917705033687       -0.05829130029574
C           63.26349116384514        3.38825405516913       -0.27650675572567
C           64.22261355424806        2.43063584819317       -0.30515111365410
N           62.20690749585750        1.35585171421256       -0.01469557211001
C           63.55854712502337        1.18051027754910       -0.12182449330910
C           64.23307834105086       -0.03729463060487        0.01704977390791
C           63.55934602390960       -1.25844803518397        0.11930971383401
C           64.22412460448292       -2.51153731445205        0.28218206306551
C           63.27262323117354       -3.47175151604461        0.18536975610952
C           62.02952409293928       -2.80052914697347       -0.04287009170079
N           62.21202165321423       -1.43615741510574       -0.03453035202834
C           60.83063921929502       -3.45066412167884       -0.30602135198225
C           60.83731728726357       -4.92807341468504       -0.43722254819705
C           61.60522744270947       -5.53463284590323       -1.43197949808613
C           61.59984299504179       -6.91819050326439       -1.56487449002432
O           62.32603975923625       -7.51905403466895       -2.53642485187418
C           60.83233056627655       -7.69638877087137       -0.69569920682277
O           60.85900593608277       -9.07349499567526       -0.86007826707876
C           60.09645310232892       -7.09386236158719        0.32285351474981
O           59.37357330703782       -7.85194619713961        1.19650619344229
C           60.08358175420197       -5.70844295419109        0.43992595589591
C           59.62528198707422       -2.77426144969401       -0.44290144454712
C           58.37983277828509       -3.40819387343576       -0.75083003301767
C           57.42061111135765       -2.45581177265547       -0.65124775386963
C           58.08400428193816       -1.24169129902897       -0.29914198654779
N           59.43581336229553       -1.42979094367322       -0.21484816610985
H           56.35750879036863        2.44854771395969        0.78938485973726
H           58.24968240938174        4.36824539047131        0.88441533789050
H           62.15733385871416        4.94594461681528        1.91024501862054
H           62.78048492744746        6.94377637775306        2.78187945684687
H           60.18900610881763        9.32991559499536       -0.26861188991828
H           58.81784401899525        7.23129368804214       -2.06447939857948
H           59.44127738208375        5.09554805842143       -1.41620420206703
H           63.38065424120499        4.45318578886295       -0.39355239327377
H           65.28618744671667        2.54559794213645       -0.43861559497813
H           65.28383980677064       -2.62608614656874        0.44351889448175
H           63.39187424292503       -4.53997115766321        0.26333621520955
H           62.18732097195875       -4.93811641641420       -2.12241329810733
H           62.19513205760947       -8.47957860767191       -2.46603860853887
H           59.97468523321398       -9.44827559565986       -0.75560472883777
H           59.68062769325596       -8.76937050935863        1.17942325799708
H           59.50826744265692       -5.25070854094745        1.23416908666366
H           58.26344063060276       -4.44823601869048       -1.00815921313771
H           56.35711205101759       -2.55187537460021       -0.79932551500981
Ni          79.38500755959218       -0.00053505154842        0.00997094008751
C           75.97317284564458       -0.00709471783404        0.03717384790248
C           76.64807550749903        1.18845863278649        0.30547539299281
C           75.98436273724516        2.40906864706628        0.63287578239312
C           76.93728570673352        3.37281497585319        0.66570762045149
C           78.18000692970176        2.73662767010853        0.35280173246662
N           77.99573662779912        1.38357322164109        0.17908196739248
C           79.38107331740345        3.41471329174294        0.18396663215899
C           79.37391238217876        4.89533718000388        0.24283907447114
C           80.13355665303675        5.56778586690582        1.20097100030416
C           80.13132770176645        6.95826422504485        1.26975586595525
O           80.85758871756660        7.62396848472951        2.20481458516711
C           79.36747320803207        7.69666537277174        0.35982840887055
O           79.35008604186811        9.05388966868678        0.39672793034542
C           78.61270275536410        7.01579527249618       -0.59934029206632
O           77.89075639265333        7.79859026289246       -1.46265388745051
C           78.60395883738727        5.62948589698928       -0.66148163065267
C           80.58733388123338        2.75888550030447       -0.02809058019232
C           81.83663642788704        3.42373555121821       -0.23914971712010
C           82.79422367321300        2.46415879054767       -0.24888020522351
N           80.77342059694053        1.39562944231438        0.02829852485881
C           82.12576282782666        1.21678403505138       -0.06324550822435
C           82.79597121182098       -0.00189435830417        0.08864448422501
C           82.11841937831747       -1.22143860068130        0.18417158298376
C           82.77866432829154       -2.47645741861490        0.35014987744441
C           81.82676744548975       -3.43446963727694        0.23597369270708
C           80.58775418716493       -2.75978111001100       -0.00358020971946
N           80.77255714621688       -1.39601603108963        0.01356185360821
C           79.39001767058106       -3.40664846137242       -0.28101263436813
C           79.39722466740734       -4.88298288946966       -0.42336497579129
C           80.17337393911286       -5.48152382625386       -1.41664201008009
C           80.16963692044965       -6.86393756148303       -1.56060228865483
O           80.90386344412748       -7.45665004274298       -2.53106886414725
C           79.39563014616265       -7.64934121862775       -0.70366496238814
O           79.42431639682752       -9.02479890844871       -0.87933473487435
C           78.65149701728943       -7.05506232814074        0.31369025341006
O           77.92175148545694       -7.82014980840130        1.17591394583817
C           78.63700163951069       -5.67061194346606        0.44161105247887
C           78.18628792506304       -2.72800624473578       -0.41932574900871
C           76.94031538696865       -3.35857069046236       -0.73233854422873
C           75.98198045207680       -2.40598590464575       -0.62654548191083
C           76.64663168124986       -1.19443883242332       -0.26781801328097
N           77.99800741526960       -1.38442703551061       -0.18389155923190
H           74.92464293430473        2.50251085614079        0.80747680825675
H           76.81889258764750        4.42090193202120        0.88730073041284
H           80.71866276650263        5.00495013932217        1.91952675276595
H           81.33900197566481        7.01049034093086        2.77527615385914
H           78.76491468240006        9.36954848796742       -0.31072776365132
H           77.40130223556417        7.25517940211609       -2.09374746408255
H           78.01999426704606        5.12498481632245       -1.42224089670752
H           81.95717150531151        4.48738055309260       -0.36409381659994
H           83.85938749785768        2.57606829634510       -0.37175237732133
H           83.83610004394860       -2.59380635197265        0.52399977947799
H           81.94312282701084       -4.50332167234417        0.30974358960047
H           80.76094947856647       -4.87938633928309       -2.09750098693161
H           80.77249574629522       -8.41773542455569       -2.47021018779748
H           78.54116707749468       -9.40219770068709       -0.77313833237266
H           78.23206081333298       -8.73645799523001        1.15812560656068
H           78.05548482453324       -5.21957846711224        1.23517654048837
H           76.82284815747634       -4.39680501012277       -0.99641479006396
H           74.91844017563821       -2.50005878938682       -0.77566004910923
