191
 energy: -381.653364832232 gnorm: 0.000964190112 xtb: 6.5.1 (b24c23e)
Cu          29.70856298126093       -0.00985888698246       -0.04296544213345
C           26.30125989923847       -0.03561781154003       -0.09338735489132
C           26.93773702215404       -1.25178438632275       -0.28722803219054
C           26.26344455242068       -2.50619794430645       -0.46317929198705
C           27.22269049171097       -3.45134400281177       -0.61804366794527
C           28.49273007430423       -2.77932792540107       -0.55078953483100
N           28.28886645613390       -1.44656494101474       -0.34134550535412
C           29.73937478753461       -3.40213720942419       -0.65434889540642
C           29.74668958454696       -4.86186456188122       -0.91194705229648
C           30.31128124018084       -5.74127648932595        0.01677076789662
C           30.30006795442334       -7.10555911141145       -0.20980992181522
C           29.72468938622469       -7.59503062485021       -1.37905134786574
N           29.70452093591316       -9.02689706170567       -1.61931771899151
O           29.19112582063311       -9.41430412338174       -2.63765365556370
O           30.20060918520293       -9.73957673601612       -0.78476065220128
C           29.16492356782296       -6.73602065759937       -2.32061206079156
C           29.17642447593194       -5.37405053444238       -2.08150847419050
C           30.97361484079576       -2.75956123830473       -0.53229020815045
C           32.25070649075404       -3.39247053619961       -0.70416322478848
C           33.19595856496754       -2.43524527306102       -0.52607874441940
N           31.16061427449140       -1.42955914797572       -0.26487014607386
C           32.50439728569294       -1.21140418274705       -0.25216884124456
C           33.14005440699226        0.01866739405115       -0.00618247453942
C           32.47908058811227        1.23686029521256        0.23145608701932
C           33.14429917787574        2.47025122310783        0.52670194849747
C           32.17967699741767        3.41058466783030        0.69051367442758
C           30.91723581553666        2.75808540749743        0.48643858430028
N           31.13189979568490        1.43269049894180        0.21682123300240
C           29.67011888934512        3.38034409396387        0.57961536659696
C           29.64632088552284        4.83823368683898        0.84616383684664
C           29.03284460653250        5.33273190001080        2.00144860613437
C           28.99088967679171        6.69259364601667        2.24882936313328
C           29.56381061342855        7.56740608404583        1.32999315947937
N           29.51194147668908        8.99701980997087        1.57868578848948
O           28.96059185686929        9.36871338770343        2.58294616102117
O           30.02020489212931        9.72377257256408        0.76382242629958
C           30.18206544759633        7.09576039193973        0.17540218675038
C           30.22322073006459        5.73345885111018       -0.05958713079707
C           28.43672172124629        2.73891998971720        0.43726735638221
C           27.15530305683353        3.39178098616346        0.46762531148648
C           26.21550054897068        2.43323452953297        0.27954106155973
C           26.91346605502473        1.18949956639817        0.12106988184137
N           28.25928513314529        1.40410977486317        0.21725628528869
H           25.21643028910044       -0.04357526327224       -0.11021987777542
H           25.19264327321621       -2.63415179426399       -0.45603219829842
H           27.08868267435248       -4.51245490556729       -0.75295384283270
H           30.74327148100477       -5.34877005575917        0.92994030894963
H           30.72629056356077       -7.79556210262338        0.50846172868903
H           28.72821563769531       -7.14170273912103       -3.22526435931310
H           28.75225179220172       -4.69394950127799       -2.81097585842986
H           32.40088931464202       -4.43217389740085       -0.94584828390537
H           34.26782593642105       -2.53778037209251       -0.58058367085127
H           34.21293652887986        2.58975537758496        0.60516783859908
H           32.30747783108925        4.45099514639988        0.94182796806536
H           28.59862736810658        4.64053618373998        2.71342512474038
H           28.52035352987104        7.08457164014925        3.14249388146806
H           30.61763617755242        7.79780893598234       -0.52537596833532
H           30.68849428964675        5.35476488839477       -0.96217277745047
H           27.00138381924257        4.45030003115855        0.60163370392114
H           25.14366463807786        2.54543134629280        0.23935360307673
Cu          61.80785892405469        0.04878195198325       -0.01640970884147
C           65.21462180431236        0.09064690059740       -0.08063510104475
C           64.58067580617966        1.29102414776886        0.20036436691526
C           65.25760551040172        2.51966045751760        0.50268788347370
C           64.30025824415939        3.45471663438641        0.71855435969326
C           63.02868349467278        2.80734034012105        0.53653839352640
N           63.22984471303094        1.49271774655905        0.23154357978280
C           61.78324331692553        3.42513572117639        0.67771624054385
C           61.77855709255306        4.87537028361944        0.98423519424073
C           61.21841452824715        5.34405614467661        2.17640432211520
C           61.23295256545624        6.69387853063247        2.47715196324801
C           61.80703134167857        7.58457017578941        1.57444589679740
N           61.83113339021045        9.00210295070847        1.88810902495545
O           62.34406421941843        9.74172938830946        1.08781984849108
O           61.33926086717447        9.35113123339619        2.93061583150475
C           62.36192480235937        7.13969073160798        0.37780224738004
C           62.34720051531250        5.78728488811005        0.08955780618790
C           60.54787414429968        2.78468527024637        0.55577353898768
C           59.27180754808749        3.43776557679246        0.63444163900956
C           58.32482272120728        2.48369457784849        0.44864067345911
N           60.35856968646478        1.45045149125272        0.31227881360736
C           59.01430408368103        1.24448594491080        0.24863202103789
C           58.37660083801537        0.01012623626125        0.03121220886719
C           59.03563575890003       -1.21096084632105       -0.19710390520988
C           58.36900958696232       -2.46659583827215       -0.36996473185014
C           59.33183024223148       -3.40065702846735       -0.57520225384900
C           60.59444608558451       -2.71833929077099       -0.53832353941644
N           60.38193297295877       -1.38726855769860       -0.29653848501587
C           61.84002086248884       -3.33002052904314       -0.69865172528137
C           61.86061144358045       -4.78173288675172       -0.99690422660687
C           62.48757369932999       -5.67264393062025       -0.12011611924260
C           62.52694215031877       -7.02603597035186       -0.40120641317787
C           61.93767861490020       -7.49322917598896       -1.57265910821080
N           61.98764704968331       -8.91154709593090       -1.87947312489868
O           62.55185688862876       -9.63202765878430       -1.09638405487559
O           61.46248542892113       -9.28063839381476       -2.89858399299732
C           61.30529326759659       -6.62385684672661       -2.45700388773965
C           61.26706209582056       -5.27287962260338       -2.16362427493739
C           63.07427605562795       -2.68110587929154       -0.60628663038861
C           64.35354506748588       -3.29745952624027       -0.83599903383182
C           65.29495813133852       -2.33795263078618       -0.66132658400943
C           64.60001176532353       -1.12545908742312       -0.33569125272116
N           63.25438759995491       -1.36070264548103       -0.31345554721764
H           66.29931536114371        0.10406845931002       -0.10210578279642
H           66.32878870835714        2.63493096134392        0.55083081672605
H           64.43661267169864        4.48909852824936        0.98980416053422
H           60.78744511305388        4.63889241090315        2.87752689615818
H           60.81045024764102        7.06543502465416        3.40296003774933
H           62.79752294339237        7.85387879440757       -0.31058627740338
H           62.76763898644725        5.42912033793358       -0.84292680152401
H           59.12347536607187        4.49328188915147        0.79520355015688
H           57.25303587160194        2.60027634535041        0.43963638161997
H           57.30081535078301       -2.60709216004696       -0.32947852232990
H           59.20283566790984       -4.46047640090662       -0.72384463341517
H           62.93451518429871       -5.29745026175903        0.79315095165984
H           63.00810523132948       -7.72393679545354        0.27340927750890
H           60.85692238700485       -7.01245486615221       -3.36344436140650
H           60.79109334517926       -4.58393339397492       -2.85164067430843
H           64.50499760615675       -4.32913796915864       -1.10950786543918
H           66.36594427198452       -2.42670686246322       -0.75158481263918
C           38.34389707425429        0.04357843349911       -0.00108794970044
C           37.11565555269283        0.04122782507118        0.00475484007989
C           35.77046613699864        0.03650603596542        0.00490126304437
C           34.54662491186543        0.03081563031079        0.00181261253909
C           39.68891267233096        0.04092058266914       -0.00224625188232
C           40.91290982341981        0.03689296954205       -0.00501523422301
C           54.40119528837455       -0.01721889869648        0.04315113905340
C           53.17281454752624       -0.01925871377887        0.04013905868547
C           51.82783639363916       -0.02226118701954        0.03008677430583
C           50.60382131531178       -0.01782143662837        0.02371547225424
C           55.74633241948256       -0.01152511905929        0.04246277065407
C           56.97013230103540       -0.00329088446052        0.04056949816587
Cu          45.75836234605129        0.00931811779347       -0.00471195261612
C           42.31885508931719        0.02941973544807       -0.00811589297392
C           42.96112593782992       -1.22035206529365        0.05834641723453
C           42.27678133593114       -2.47339204126103        0.17026341929027
C           43.22747438113727       -3.44146415972246        0.19928918625927
C           44.49970942153582       -2.78415613834010        0.09626090942983
N           44.30482907948184       -1.43143545698961        0.02013316071894
C           45.73843246526268       -3.43028369836930        0.10234321804601
C           45.72907789303073       -4.91217238905606        0.14797243201248
C           46.30731840511198       -5.58904666530012        1.22608048542672
C           46.29733816837846       -6.97106359951102        1.27563199241461
C           45.70896258674448       -7.68341832754477        0.23443786265991
N           45.69811107754853       -9.13475615381967        0.27998721389345
O           45.17444444713885       -9.71752839932703       -0.63468802227884
O           46.21116889366621       -9.66668392957202        1.23099183923043
C           45.13069501208621       -7.02894213144267       -0.84953840066860
C           45.14090083330606       -5.64652802887853       -0.88627106080538
C           46.98471803658383       -2.79969960689561        0.07069347189400
C           48.24943849980188       -3.47673146164639        0.01272125802950
C           49.21140785051769       -2.51971873163806       -0.01273664098598
N           47.19523645725980       -1.44719059799214        0.06440919053771
C           48.54144474241453       -1.25439710571383        0.01931828453933
C           49.19797430519009       -0.01034647626778        0.01330555577560
C           48.55556747861905        1.24104349242312       -0.00352733300469
C           49.23934091722439        2.49894962035892        0.02918326353419
C           48.28866060286983        3.46653345953586       -0.01413172553500
C           47.01706450014665        2.80342508511939       -0.08158792232701
N           47.21217518386366        1.44874210804245       -0.06477058927427
C           45.77853551267545        3.44831278140370       -0.12825230378816
C           45.78828433347764        4.92964057496655       -0.18913702310132
C           46.38288962650279        5.58631529634738       -1.27089998653632
C           46.39172367588579        6.96762128616211       -1.33651663318228
C           45.80565582979153        7.69971691088517       -0.30777725108103
N           45.81363511477548        9.15041492618981       -0.37067869591854
O           46.34236318783567        9.66437837398911       -1.32299481132179
O           45.29281645712102        9.75076998247870        0.53418771392699
C           45.21173105643732        7.06555885419700        0.77979755192750
C           45.20323207194957        5.68361033771040        0.83262126003506
C           44.53223131722186        2.81698462587427       -0.12357384115416
C           43.26789339044944        3.48831330480850       -0.23340955455802
C           42.30589537406215        2.53164077642844       -0.19860401279868
C           42.97548249863753        1.27145133529902       -0.07825675074893
N           44.32148193190186        1.46707629807727       -0.03958873411748
H           41.20622208681764       -2.58763976911072        0.22714906464785
H           43.08320723273630       -4.50517292680781        0.29716857403726
H           46.75193569019765       -5.02248848659871        2.03594705905750
H           46.73689527309710       -7.50425755231085        2.10999998673309
H           44.68294359861310       -7.60668053220482       -1.64917348776827
H           44.70400829395352       -5.12512099243809       -1.72996284340347
H           48.38142565253295       -4.54603474094251       -0.01970197326897
H           50.28077497822756       -2.64943422701611       -0.05795936029177
H           50.30949780470952        2.61705223175443        0.08576836685453
H           48.43233388089194        4.53448427831798        0.01272882861463
H           46.82560831816173        5.00444585278802       -2.07089802118498
H           46.84402536170621        7.48517582636716       -2.17391310803541
H           44.76644447158747        7.65846411252219        1.56964939318604
H           44.75409217212243        5.17799640354385        1.67948198977693
H           43.13610731640642        4.55293747025020       -0.33862752586167
H           41.23679547612576        2.65782848220592       -0.25784000590290
