308
 energy: -537.591221315694 gnorm: 0.000566013481 xtb: 6.5.1 (b24c23e)
C           61.34889782731754        0.08627650086915        0.00284710489044
C           61.96131297895195        1.33103251802798       -0.06184689474754
C           61.31345870322453        2.59801537094853       -0.09066060892999
C           62.27798929948048        3.56264490739844       -0.16661002622581
C           63.54642777720007        2.91518894190542       -0.19749179392548
N           63.30474948459258        1.57318886691677       -0.12161493211765
C           64.81128735427660        3.50979849861584       -0.26887596224334
C           64.84759532454432        4.98854879130003       -0.36670233255238
C           65.47909878837771        5.74727274518481        0.62176755233894
C           65.51251504329028        7.12746968848109        0.53729531543048
C           64.91593417212002        7.77797077981313       -0.54694289548320
C           64.95099726079235        9.19807158849046       -0.63905665125392
N           64.97934166858265       10.34609363085588       -0.71311236578543
C           64.28485092935226        7.02332720540922       -1.54025413567895
C           64.25014720694361        5.64360300403758       -1.44609434722945
C           66.02537860784400        2.81818772020871       -0.25572902739958
C           67.32263442057574        3.45481243756525       -0.39883158049960
C           68.24104057754177        2.46872292516834       -0.33658056742701
N           66.17686918451570        1.47147929787263       -0.13116761968899
C           67.50362112896603        1.23183705272066       -0.16432217834583
C           68.13774241754138       -0.01969061894901       -0.03342476893085
C           67.49992934323043       -1.26711410034046        0.09811593003118
C           68.14115415906598       -2.52571953155965        0.24561193375340
C           67.17203156139766       -3.48820330371463        0.30832035597815
C           65.90783448285443       -2.84591277763235        0.19303272271833
N           66.15775684553994       -1.50420547116963        0.07931574022803
C           64.64392905146848       -3.44565930308933        0.21603525866771
C           64.60826434658578       -4.92437033408520        0.30577407513281
C           63.98488065642167       -5.55548973920183        1.38501269024314
C           63.94819510601482       -6.93567104869159        1.46920767394736
C           64.53288790211961       -7.71512988646142        0.46657443503662
C           64.49280616442198       -9.13579365975834        0.54697827555834
N           64.46044775412811      -10.28427486876821        0.61147992438338
C           65.15690811775676       -7.08875124969808       -0.61638532196417
C           65.19523928985099       -5.70804589459000       -0.69081396523551
C           63.42824286976299       -2.75555679433791        0.15681329562008
C           62.12229176366193       -3.39666066864502        0.13153155665945
C           61.21103001770434       -2.40490963241076        0.07659783711926
C           61.95892242578802       -1.15996432002502        0.05461799011321
N           63.29078859237971       -1.41020632339086        0.09504440653101
H           60.26368226512820        0.09840592076065        0.01090922022227
H           60.24522938128283        2.73936312025674       -0.05139975317115
H           62.13016287470449        4.63009608220950       -0.19054062606864
H           64.02765286588033        0.86155392686056       -0.10800087994574
H           65.93225198884788        5.24701359711528        1.47010022491738
H           65.99936596281256        7.70942114293125        1.31106838341370
H           63.82530627693956        7.52377873633845       -2.38452207220247
H           63.77205280590138        5.06171150594687       -2.22606351164231
H           67.48625598098452        4.51053060920339       -0.54230194251686
H           69.31444037327427        2.54389733195337       -0.40520624145947
H           69.20865383128447       -2.66604571867823        0.29991355415330
H           67.31650934861776       -4.54884533124765        0.43384177510983
H           65.43749729093719       -0.79422056088901       -0.00312271851503
H           63.54133184282784       -4.95476140245700        2.17092232005625
H           63.46759024655331       -7.41774765084139        2.31243916613249
H           65.60765610807766       -7.68948614390986       -1.39767371982123
H           65.66745581679798       -5.22670874647953       -1.53986764525694
H           61.95115171032353       -4.46101523250061        0.14125031194121
H           60.13528721232264       -2.47700060986659        0.04317627330832
C          121.91135993939011       -0.11148761740335        0.01562195950650
C          121.30096920678183       -1.31778321195919        0.33341665838814
C          121.95156574995936       -2.53643260294944        0.67598572571390
C          120.98832163009592       -3.47597760425555        0.91270134250806
C          119.71782629290510       -2.86363073892459        0.71297820607776
N          119.95729194007090       -1.56273052010885        0.37339502293107
C          118.45355797176323       -3.44588604908048        0.85907798860428
C          118.42193558153555       -4.88438628845357        1.21682547333422
C          117.82748059794487       -5.30631328194862        2.40833882987978
C          117.79945323711443       -6.64758374850456        2.74553849196544
C          118.36426985542184       -7.59765775513775        1.88940318594123
C          118.33469312327736       -8.97925018869628        2.23110340855669
N          118.31136485211717      -10.09618999248463        2.50664300284041
C          118.95852202487400       -7.18089245759772        0.69457377581713
C          118.98809921940659       -5.83730866852140        0.36672215729055
C          117.23773610819566       -2.77886459686146        0.68950171910072
C          115.93920771450888       -3.42041010288001        0.79369117732304
C          115.01968899264065       -2.46253478664327        0.55587825012174
N          117.08506883104782       -1.46282603861954        0.37714018150388
C          115.75749173022706       -1.24119366809428        0.29592942570861
C          115.12223809138948       -0.02008322933879       -0.00651572324962
C          115.75815131664342        1.19783126664426       -0.31108267134550
C          115.11423403056945        2.43374669805085       -0.58485540714644
C          116.08180531604009        3.37083704939391       -0.81936373075372
C          117.34791152512886        2.73204362894119       -0.70554964784267
N          117.10015118599671        1.42205325108401       -0.39161947676932
C          118.61141660534666        3.31578592181059       -0.84725337572765
C          118.64707984173147        4.75532754755343       -1.19757915594313
C          119.25040697569948        5.67635674675934       -0.33759348076734
C          119.28433889853565        7.02172354577673       -0.65683846586214
C          118.71707319377232        7.47296229193612       -1.85237451834283
C          118.75244669247516        8.85652079569312       -2.18536177243542
N          118.78025819597123        9.97507670481799       -2.45411048844582
C          118.11487630829228        6.55516525865358       -2.71811780947790
C          118.07922747696287        5.21189259049420       -2.38942781152280
C          119.82787262868028        2.64444522166192       -0.68216561146440
C          121.13312435654711        3.25259400685872       -0.89093148275765
C          122.04575962093270        2.29063179079984       -0.64867454709825
C          121.29951903409592        1.09374954511556       -0.30187174403434
N          119.96716377375692        1.34230323577914       -0.33940112788106
H          122.99663169968896       -0.12153554099164        0.01711371661222
H          123.02072353856605       -2.66267852424403        0.73611233360508
H          121.13836553409820       -4.50139782372771        1.20917328805284
H          119.23282163817237       -0.87812703816806        0.18442190036196
H          117.39930323374901       -4.57142162182908        3.08055742953519
H          117.34141761703862       -6.96670376044007        3.67439419933363
H          119.39356204001528       -7.91480374375569        0.02630796948946
H          119.43771285481233       -5.51987475974467       -0.56742529124500
H          115.77503760655961       -4.46455809325158        1.00507254043250
H          113.94513752784606       -2.55031428612799        0.54179898469697
H          114.04605309078397        2.57903837910171       -0.59151593365472
H          115.93458635202569        4.41523966695109       -1.04092257571415
H          117.82203724962623        0.72713449750254       -0.23148301547324
H          119.68006274744704        5.33209198199334        0.59631456217217
H          119.74869546299972        7.73071310912280        0.01853826128095
H          117.67835615600505        6.90053559622767       -3.64796913167169
H          117.62389584439875        4.50194740686562       -3.07072079257418
H          121.30264139193852        4.27268108707599       -1.19578787370310
H          123.12150146481260        2.35174815642879       -0.69939405956315
C           70.76683517104749       -0.04606370259078       -0.03689375007440
C           69.54500272736990       -0.03682987624091       -0.03445020640688
C           72.11702796570358       -0.05176187268174       -0.03957008248985
C           73.33902953466793       -0.05292080425018       -0.04083988541019
C           84.22758682048827       -0.02158560588127       -0.01586159431298
C           83.00490193326181       -0.02757546009983       -0.02048023791937
C           85.57580931533079       -0.01496719324922       -0.01276761502721
C           86.79852910952602       -0.01480595657546       -0.01081507113198
C           97.68327193697803       -0.01193736367214       -0.00955425044655
C           96.46056444383601       -0.01273759148236       -0.00951754173058
C           99.03150827118409       -0.00804585242245       -0.01334222704937
C          100.25421006401520       -0.00786525054880       -0.01452880733477
C          111.14329287628402        0.01246412907129       -0.01056825430055
C          109.92121721497277        0.01278194465320       -0.01399248365850
C          112.49327667884984        0.00783235823978       -0.01032307384480
C          113.71518716680625       -0.00437068194774       -0.00878266280032
C           74.74549333019961       -0.05268837403360       -0.04244973309484
C           75.36969724814620        0.87366891410472       -0.89938985233913
C           74.71873371561682        1.81512479947649       -1.73797835366093
C           75.68081472303751        2.49292289187969       -2.43575288840396
C           76.94781146147861        1.97784447505158       -2.04829450496680
N           76.70967460693348        1.01176197235864       -1.10831900258756
C           78.20593471028269        2.37781575742020       -2.51655282135636
C           78.21671755591717        3.40617468519432       -3.58477432677945
C           77.60251536958387        3.15512034722351       -4.81409608414543
C           77.61878585823868        4.10690768340085       -5.81774032504855
C           78.24775676637688        5.33743465360213       -5.60640047756483
C           78.26591164518668        6.31913477821406       -6.63720585656838
N           78.28012717487125        7.11092158844278       -7.47207063772384
C           78.85918128904696        5.59586454458073       -4.37600981602159
C           78.84412631803686        4.63712768020145       -3.37897607929853
C           79.43242196840855        1.88676398845776       -2.06605733227248
C           80.71635738297745        2.28248299075894       -2.61716277081894
C           81.65526792941901        1.61185474485484       -1.91817862290979
N           79.61195752344497        0.97473396175951       -1.07095813252991
C           80.94305887575285        0.79959702561468       -0.95149768831043
C           81.60067439084507       -0.03540491909837       -0.02551251760791
C           80.97587309972788       -0.89072184703168        0.90269782146249
C           81.62663990463800       -1.71365235121261        1.85786359577352
C           80.66454029645730       -2.40256782307859        2.54459139221201
C           79.39781658593823       -2.02611554211076        2.02052495437411
N           79.63658909944432       -1.10149499998593        1.03933503322910
C           78.13976341224858       -2.48857379120010        2.42558023786128
C           78.12815004160174       -3.52690853224374        3.48416208047534
C           78.74633085783150       -4.76172343136714        3.27357093471963
C           78.73543062240088       -5.73258305507015        4.25893892712957
C           78.10801305784322       -5.48188707976087        5.48283155640969
C           78.09795132771833       -6.47735977337283        6.50044017484634
N           78.09037401726350       -7.28197920793412        7.32301253752441
C           77.49061596975038       -4.24644769368654        5.69985387613213
C           77.50002657737414       -3.28262664474758        4.70774131016182
C           76.91362390854124       -2.05437832702577        1.91766941515939
C           75.63076032116066       -2.60597223580257        2.31616860746253
C           74.69172512804232       -1.92723134013652        1.62522199163783
C           75.40252864184258       -0.97003766964655        0.80061834919052
N           76.73425013865135       -1.07872464926709        0.98602998433425
H           73.65085191546959        1.95223084175535       -1.79182020795128
H           75.52824825747915        3.28652612275884       -3.14877026633004
H           77.43210954138783        0.47767889079395       -0.63706039103530
H           77.12612193084334        2.19670371979867       -4.98734712749092
H           77.14686454268967        3.90146927021092       -6.77142562961429
H           79.34403416991965        6.55021345871677       -4.20717357301018
H           79.30940527620039        4.84558731805483       -2.42225929728232
H           80.85856038861650        2.96851552991763       -3.43627905241209
H           82.72710155501025        1.63910784581765       -2.03228309031707
H           82.69428616924303       -1.76236957162522        1.99870382155259
H           80.81717911660073       -3.10250675589538        3.34972686629477
H           78.91428975475584       -0.63910454225932        0.49739006485526
H           79.22249561619026       -4.96528038179830        2.32101990198261
H           79.21133677828675       -6.69061376201697        4.08541821540369
H           77.00650088203467       -4.04728008250146        6.64873041579957
H           77.03064258184682       -2.32143405674525        4.88396887556919
H           75.49002063152959       -3.41187717260021        3.01800632180751
H           73.62049344523075       -2.04767707147479        1.64792411304269
C           88.20277070836691       -0.01404853601431       -0.01138460280301
C           88.82727581920820        0.87719601547586       -0.90571978119249
C           88.17519819190670        1.78870384012349       -1.77558357191311
C           89.13718536494503        2.45397516903963       -2.48568846291213
C           90.40495665564933        1.95981920384264       -2.07495469895134
N           90.16709664461914        1.01693949235370       -1.11118422039013
C           91.66383057105419        2.36116251435078       -2.53952612052097
C           91.67514404865921        3.37571130362313       -3.62113055418948
C           91.07875692918600        3.10275391913785       -4.85443634115980
C           91.09151807084697        4.04478708879901       -5.86737659738117
C           91.69876912212759        5.28708034645996       -5.66144142209349
C           91.71087160358846        6.25979828168069       -6.70085299697453
N           91.72045618625026        7.04461182080306       -7.54225710782003
C           92.29371997725045        5.56664014056194       -4.42760242867514
C           92.28260748782327        4.61756677353179       -3.42130779703669
C           92.89006246696331        1.88513449777129       -2.07277231594654
C           94.17493862722353        2.28093052533711       -2.62116576579755
C           95.11294069608779        1.61851205597184       -1.91317176194520
N           93.06822151343709        0.98387842243541       -1.06754272480297
C           94.39932474302316        0.81254554337919       -0.94222744133854
C           95.05631732235855       -0.01593713695170       -0.00987972046382
C           94.43194926149016       -0.85824269439494        0.93068898851959
C           95.08401313775181       -1.67440802493122        1.89058630115022
C           94.12199568280084       -2.34472658369162        2.59587316326177
C           92.85416180640156       -1.96271460103693        2.07926866595465
N           93.09208435875820       -1.05518019672953        1.08215343103388
C           91.59523282596891       -2.40238483962991        2.50762846080942
C           91.58386807482047       -3.42297689896487        3.58353185667438
C           92.17994363157489       -4.67027086948557        3.38302434655540
C           92.16715063974998       -5.62645978677328        4.38259777201469
C           91.56012668566278       -5.34822479047739        5.61081490818113
C           91.54734729795973       -6.32927130999016        6.64235695035387
N           91.53787811703170       -7.12188087142826        7.47652508016642
C           90.96554849876833       -4.09999113940241        5.81794594940606
C           90.97670861475400       -3.15083094104025        4.81172547307896
C           90.36892912604654       -1.96338020158088        2.00593486711248
C           89.08401767929179       -2.48775565662027        2.43301630993715
C           88.14600523857635       -1.81949933471952        1.73053070473650
C           88.85960465724000       -0.89693382710050        0.86962539356095
N           90.19075112024265       -1.01204952679576        1.04799902952232
H           87.10679447450326        1.91699005974449       -1.83978787857571
H           88.98354078431629        3.22603275350825       -3.22174421419596
H           90.89049857527269        0.50231914794497       -0.62012273995593
H           90.61850705261932        2.13565127155446       -5.02296527173150
H           90.63294507059172        3.82285228500960       -6.82387140755243
H           92.76210294262441        6.52995716336121       -4.26315343754158
H           92.73469150994362        4.84226006325022       -2.46193380090612
H           94.31811436250460        2.96129674308972       -3.44483011030191
H           96.18513108767313        1.64810993557820       -2.02313022600889
H           96.15244009388461       -1.73145888373436        2.02206528206305
H           94.27564098906991       -3.03510329257890        3.40903434915748
H           92.36872813049132       -0.59416915545918        0.54039212318974
H           92.63989284626815       -4.89514686386856        2.42730885108856
H           92.62545237186706       -6.59439561682867        4.21683088023963
H           90.49735433504867       -3.87947255052128        6.77008393089652
H           90.52485037153200       -2.17988747345129        4.98012419089627
H           88.94080795961652       -3.27049675883610        3.16009388900875
H           87.07380308861171       -1.92750291599834        1.76650273603319
C          101.65851180874969       -0.00638026017772       -0.01853477666843
C          102.28120666736861        0.89119516980100       -0.90741401523066
C          101.62762485040241        1.80386649039270       -1.77508657137356
C          102.58877961307040        2.47853726010927       -2.47708321876531
C          103.85791602427123        1.99020689440865       -2.06271002348677
N          103.62111041907080        1.03939990906862       -1.10643833787584
C          105.11585398971469        2.40786322373593       -2.51428002465462
C          105.12274998717893        3.43064469047165       -3.58836393793457
C          104.54226711132787        3.15609526201529       -4.82892272231313
C          104.54839427953424        4.10491735548169       -5.83550878529172
C          105.13282510665155        5.35575253813099       -5.61568870817577
C          105.13750693010041        6.33575083611592       -6.64829536301804
N          105.13989902887164        7.12644767311693       -7.48426409402677
C          105.71192079335961        5.63675186852738       -4.37466607823588
C          105.70762959262487        4.68087714361026       -3.37470013883267
C          106.34413263934987        1.94081545599222       -2.04272649811412
C          107.62873115665766        2.36187563470946       -2.57310816945934
C          108.56877064845222        1.69623731077202       -1.87100336662414
N          106.52448349487068        1.02358483319521       -1.05331555713117
C          107.85710749557592        0.86196653537329       -0.92275012502156
C          108.51497218902315        0.00893802627166       -0.01494945001171
C          107.89255893412076       -0.86215811302162        0.89944462820406
C          108.54629103037082       -1.70170236442485        1.83818343693388
C          107.58543390394796       -2.38316590314493        2.53392799873114
C          106.31625322400504       -1.98556695561774        2.03212385721126
N          106.55249391145303       -1.05939784322120        1.05210635113268
C          105.05789599718700       -2.42527827780758        2.46201659289286
C          105.04710888846579       -3.45603031662070        3.52834651677096
C          105.63219101856038       -4.70609170729001        3.31393921627056
C          105.61857251592235       -5.67001472900695        4.30616120805409
C          105.02167290204258       -5.39695278964753        5.54047675893949
C          105.00818297712870       -6.38537661331969        6.56492620087153
N          104.99829532521979       -7.18438244471836        7.39294290689856
C          104.43788917116619       -4.14598355057985        5.76136906678195
C          104.44999745551605       -3.18906501548022        4.76264110467683
C          103.83036344812484       -1.97566838830228        1.97298684591958
C          102.54631487167421       -2.50088084238395        2.40204586696285
C          101.60631790367249       -1.82420372936065        1.71046820732185
C          102.31776481460581       -0.89541268229151        0.85442904086253
N          103.64946100051631       -1.01461882883341        1.02540966331434
H          100.55876426185189        1.92619013953368       -1.84339307634564
H          102.43398382418943        3.25370265696229       -3.20962738352869
H          104.34499878742952        0.52554191553981       -0.61531873752869
H          104.09936372684946        2.18274128304856       -5.00768690814429
H          104.10204987773798        3.88189878669980       -6.79752258846049
H          106.16239567482815        6.60669708664461       -4.19953356977292
H          106.14703616710646        4.90670068963628       -2.40972872857065
H          107.77045143828799        3.06037716911815       -3.38171531778687
H          109.64136326119997        1.73977386044290       -1.97201408604503
H          109.61509488293331       -1.76482469979079        1.96360180374366
H          107.74053766021680       -3.09103383958361        3.33162961027944
H          105.82834088208192       -0.58403560416662        0.52398700416235
H          106.08400753037347       -4.92699366391109        2.35344097563594
H          106.06833726303324       -6.64007860148129        4.12979596209210
H          103.97733735029129       -3.92952916657440        6.71815378062841
H          104.00646546929588       -2.21612782093545        4.94138536328724
H          102.40493622151590       -3.29006495230519        3.12247937788783
H          100.53406820879670       -1.93016327060891        1.75081781134223
