124
 energy: -225.850949209066 gnorm: 0.000376355953 xtb: 6.5.1 (b24c23e)
Cu          12.99895547177315       -0.02792428250093       -0.01225564686972
C            9.59402863122935       -0.07481178271223       -0.09478836025805
C           10.23303850902328       -1.30360719322296       -0.02404134293797
C            9.56157865162607       -2.56902195137450        0.05656222267683
C           10.52322607663881       -3.52162631025465        0.14111009872903
C           11.79207782555059       -2.84684310441917        0.10156079843589
N           11.58422686724310       -1.50086207596450        0.00699515116495
C           13.03826421140717       -3.47383602773948        0.17878477867794
C           13.05624054213584       -4.95554649263886        0.27392577804994
C           12.54989399497243       -5.74009812948016       -0.76231398865795
C           12.56801217283591       -7.12384936274767       -0.67695321509316
C           13.08990415547352       -7.73941812078450        0.45829090335646
O           13.12343843732145       -9.09140499079773        0.58487744585025
C           13.59540876936529       -6.96709197132418        1.50232832932550
C           13.58014369863187       -5.58695440982381        1.40437086256640
C           14.26832999838441       -2.81371977328259        0.17418639320870
C           15.54818253309373       -3.46341359843351        0.19746760445358
C           16.49110906303963       -2.48810811727814        0.15825841405376
N           14.45287428677849       -1.45737553614606        0.11139897000630
C           15.79554642498243       -1.23742970975817        0.10490157641007
C           16.42791615798001        0.01734521710141        0.04091702631418
C           15.76533675473130        1.25574154694281       -0.03055480665242
C           16.42952147787581        2.52115871476894       -0.11889681548902
C           15.46253018796427        3.47202151405887       -0.17438342809481
C           14.19914150309743        2.79302581700527       -0.11367415285630
N           14.41742569841978        1.44254874985758       -0.03545370546345
C           12.95241649846155        3.42043790912367       -0.15778446063640
C           12.93198151179622        4.90402448707066       -0.20461647479919
C           13.46917029960429        5.65377113947604        0.84463062958579
C           13.44517374826851        7.03683906639091        0.81292473577262
C           12.88506792080432        7.69332026326718       -0.28135798080140
O           12.87929962035802        9.05156131642624       -0.28157655437988
C           12.35011066196149        6.95932047116218       -1.33735469360706
C           12.37260492689784        5.57373655788410       -1.29311443125375
C           11.72182444954211        2.75815963602505       -0.15842717118468
C           10.43606822270953        3.40156773679174       -0.16404218675088
C            9.49877013210149        2.42136831472128       -0.15567689749374
C           10.20206059513737        1.17111866996123       -0.13213052411602
N           11.54791589966172        1.40431695051974       -0.13036226846665
H            8.50895586206960       -0.08886368327066       -0.10583842059790
H            8.49048616070199       -2.69708764378792        0.05670342317182
H           10.39169344695141       -4.58764533885532        0.23489457842963
H           12.15393929258938       -5.26224602826403       -1.65155988801207
H           12.17972133738135       -7.72921345412643       -1.48906702892568
H           12.74956690172609       -9.52693473611832       -0.19293727473715
H           13.99447659812959       -7.45905171193747        2.38072707187206
H           13.96377442109195       -4.98579059602869        2.22113481296406
H           15.70167522993555       -4.53005840205489        0.22530723356650
H           17.56390915245850       -2.59652757733100        0.15890801019920
H           17.49930620486019        2.65465904557093       -0.14129114006749
H           15.58976312384230        4.53873057054382       -0.26386621697010
H           13.89356284026714        5.14327287488840        1.70194340266402
H           13.85446382774298        7.62008049459243        1.62852722903748
H           12.46647108526133        9.40156043019658       -1.08242467013123
H           11.91945507334324        7.47455965109663       -2.18931528204417
H           11.96675014784610        5.00389706980926       -2.12164868670172
H           10.27678906603592        4.46789510384473       -0.16088416259857
H            8.42475756698666        2.52210970931730       -0.15553843325730
Cu          31.60195187060678        0.02310303000767       -0.01618781050948
C           35.00685068034493        0.05972304965048       -0.10421665171283
C           34.36707549449524        1.28563762722199       -0.20961175815872
C           35.03777821259440        2.55003916324242       -0.30990826769129
C           34.07554611952201        3.50432896622003       -0.36298335454604
C           32.80709116758337        2.82998711535602       -0.30680900184375
N           33.01574324877899        1.48443109415672       -0.20790564366185
C           31.56048025631214        3.46072303721798       -0.32151937411940
C           31.54151743029429        4.94073104870517       -0.43983337917299
C           32.04959981324872        5.56920102282837       -1.57673544007875
C           32.02994649011940        6.95086852683882       -1.69078184866409
C           31.50487932505230        7.72228742456528       -0.65675651384724
O           31.46973757329192        9.07838899383001       -0.72547541574510
C           30.99790069643390        7.10706805216657        0.48626626890370
C           31.01462483453608        5.72716411012813        0.58729366861669
C           30.33076497752966        2.80588452794995       -0.23246650766333
C           29.05052105605612        3.45131672617637       -0.30391912467346
C           28.10814045460933        2.47996291458505       -0.20265454606973
N           30.14700265588582        1.45453969445745       -0.09936501581076
C           28.80440275126370        1.23509628387699       -0.07481835181339
C           28.17301426085291       -0.01625392170962        0.04260970692820
C           28.83658416831861       -1.25153165269405        0.15039350847081
C           28.17307151008498       -2.51683918844148        0.24536624518197
C           29.14056902313901       -3.46530353373341        0.32683458859823
C           30.40357553150992       -2.78396294927381        0.28867193522554
N           30.18454801163999       -1.43636987566885        0.17206041829769
C           31.65062703536339       -3.41054394439688        0.33434690096412
C           31.67199830449117       -4.88547232712492        0.50101343491170
C           31.13683719369754       -5.47694020879682        1.64790613667802
C           31.16206261355736       -6.85018019531412        1.81533583935838
C           31.72129333140205       -7.65674788262015        0.82596943623141
O           31.72849232930543       -9.00089621075613        1.02111321919149
C           32.25398285581878       -7.08184235163611       -0.32545865047045
C           32.23036435616557       -5.70430211401310       -0.48080548095378
C           32.88078025449872       -2.75447277326939        0.23809347717367
C           34.16690447862049       -3.39136994469780        0.32420676288660
C           35.10362840964632       -2.41952761730350        0.19202914299757
C           34.39960454796889       -1.17916375717031        0.03666337964354
N           33.05387893663446       -1.41048086411459        0.07199701015260
H           36.09191773459993        0.07274963105351       -0.11698039637934
H           36.10880658230160        2.67747669808855       -0.32713646124369
H           34.20648343904021        4.57290338995921       -0.42214061609410
H           32.44770149306891        4.96929392071537       -2.38759712266340
H           32.41944401062613        7.43397200096852       -2.58053949659674
H           31.84357932407450        9.39831917595596       -1.55734937218103
H           30.59646735399500        7.71938584367221        1.28425806321563
H           30.62974757067629        5.24888489650170        1.48106412964991
H           28.89641263481192        4.51071484850708       -0.43036283159781
H           27.03527785624482        2.58663265819047       -0.21826267600622
H           27.10335261523067       -2.65268602603120        0.24283734520017
H           29.01395271492164       -4.53385835500595        0.39178592309572
H           30.71310911382064       -4.84874562294190        2.42349119375462
H           30.75446886107653       -7.31042311164842        2.70692857720298
H           32.14053505506875       -9.46209312065526        0.27828038168878
H           32.68380709838105       -7.71393544470811       -1.09518587728143
H           32.63454446038424       -5.25916296501139       -1.38324173621043
H           34.32674073102281       -4.44620056320315        0.47983171215131
H           36.17769605650749       -2.51865733526631        0.20635150193315
C           17.83339138289232        0.03035838333029        0.04279005171404
C           19.05796444019423        0.02911612360298        0.04451391861642
C           20.40086474132953        0.02234982227641        0.04411096425367
C           21.63145053417722        0.00792738640289        0.04469132386309
C           22.96951156416438       -0.00694936539842        0.04551420611469
C           24.20009822431566       -0.02135442112097        0.04716442983960
C           25.54299617492507       -0.02754821434224        0.04711208746050
C           26.76755704279154       -0.03038224646759        0.04640866278323
