201
 energy: -334.940974751511 gnorm: 0.000827410568 xtb: 6.5.1 (b24c23e)
Cu          38.59902502392259        0.06351722406948       -0.04638272032649
C           35.19057427661617        0.13262963875974       -0.07674838252850
C           35.82545114881513        1.03859194290864        0.75997606082524
C           35.15047142428856        1.94986144777487        1.63861219416267
C           36.11003805645633        2.64768369308200        2.29626615520207
C           37.38030837519236        2.17778504910322        1.81444047727723
N           37.17603062247713        1.19912646225294        0.88544411866091
C           38.62569314232803        2.63302331155998        2.25736011857835
C           38.63832153550440        3.74030285947142        3.24338225560838
C           38.07781549138710        4.98085510292210        2.92708918324515
C           38.10074091013330        6.02017951296482        3.83791617060527
C           38.68083930859402        5.84686503504220        5.10031347268116
N           38.63137764458259        6.90210606377717        6.00087459245294
C           39.60964572944319        6.97231586424418        7.07826925864427
C           39.22588556526807        4.60257037955228        5.42889680923703
C           39.20919165250769        3.57056441870122        4.50571196145053
C           39.85852818499932        2.12608875646816        1.83916039108193
C           41.13454046953181        2.63193169455937        2.25717659977294
C           42.08152334309421        1.89644729618070        1.62156499684889
N           40.05118198012286        1.09967514163925        0.95163220552587
C           41.39545526079995        0.94637009005870        0.79997407278089
C           42.03541296612752        0.00938320039536       -0.03283742730517
C           41.37348116054567       -0.91608042663067       -0.86130034811967
C           42.03554130555206       -1.90239805072438       -1.65950270151852
C           41.07058479449725       -2.61757199443124       -2.29155110866707
C           39.80814631550156       -2.06075556201415       -1.89758476091456
N           40.02634080876530       -1.02757460805381       -1.02371327046708
C           38.56283893797857       -2.52626543203271       -2.32702625114066
C           38.54360986066590       -3.65091892590891       -3.29273945349852
C           39.14475981473048       -3.53422224356019       -4.54690984104991
C           39.12850526115542       -4.58457246227463       -5.44935703116411
C           38.51786569706884       -5.79422280946383       -5.10742487561369
N           38.43513526859531       -6.86464141211718       -5.98783291706403
C           39.43860264490714       -7.00983327696845       -7.03438029306719
C           37.90560063281637       -5.91353327005067       -3.85398685172121
C           37.91688766363405       -4.85633934469730       -2.96401157573677
C           37.32948015520291       -2.01407341069263       -1.91275977876792
C           36.05023893429927       -2.43368942220615       -2.41701736189676
C           35.10819018231080       -1.68973419117271       -1.78515389451570
C           35.80334507134943       -0.80159184781562       -0.89869109151435
N           37.14827388908263       -1.01967872429744       -0.99600913739688
H           34.10555370884121        0.15550164103611       -0.08768338598782
H           34.07913895648193        2.02548389366117        1.74039705103011
H           35.97582358561987        3.40404317945501        3.05286331838936
H           37.64123175933951        5.13531540372418        1.94632522888459
H           37.66995586338810        6.98094569361306        3.57602572750523
H           38.50034599992559        7.79668347684711        5.54369851744189
H           40.63430015703386        6.88396172965713        6.69917239132877
H           39.42546683581701        6.17822006638863        7.80295412129831
H           39.49180034362534        7.93403314151581        7.57770785100753
H           39.66251376942198        4.43176919097185        6.40533147308922
H           39.62798097341185        2.60714338538953        4.77586732577953
H           41.28538126151266        3.45452693045338        2.93729636680545
H           43.15225664768446        1.98663341626478        1.69826489236180
H           43.10341040537264       -2.03202564038020       -1.72024871798001
H           41.20051509192248       -3.45799887579820       -2.95404182712711
H           39.61356572729755       -2.59739681788336       -4.82817421472389
H           39.59015852510105       -4.45471372720850       -6.42056772621978
H           38.24734503866974       -7.74073286199946       -5.51475701386110
H           39.31645483834139       -6.22450773860684       -7.78134232931410
H           39.28548250456777       -7.97570541542979       -7.51586073909638
H           40.45516380570304       -6.96499140773598       -6.62688700691213
H           37.42273784687417       -6.84655107039085       -3.58273083279552
H           37.45483279875225       -4.96933284082355       -1.98927883962796
H           35.89904999316513       -3.18946529856806       -3.17096851361836
H           34.03694243065303       -1.72082722578453       -1.90875720766851
Cu          60.42709121419926        0.02873294058004       -0.00552252013682
C           63.83622783910529        0.07399618684464       -0.04329237101070
C           63.21765674996374       -0.94620970078506       -0.75077531648972
C           63.90915395412419       -1.99636428701216       -1.44154130188668
C           62.96228914598415       -2.79792658991278       -1.99026451382499
C           61.68333980008300       -2.23646511053624       -1.64980890027798
N           61.86997715091935       -1.11537502580544       -0.89453316982037
C           60.44647835567672       -2.77885725763511       -2.01113266875995
C           60.45596062750898       -3.97879244970592       -2.88216812315867
C           61.02894638988985       -3.92670596755745       -4.15584584082066
C           61.03021105407014       -5.03848490045294       -4.97694742014345
C           60.46281907742745       -6.24287621196191       -4.54378569084034
N           60.53784968508400       -7.34756091868491       -5.38115462981154
C           59.57439520118585       -8.42969652598634       -5.22939643558001
C           59.90458321770174       -6.30573161968004       -3.26405606260661
C           59.89687993975487       -5.18338862088717       -2.45283900380443
C           59.20451691769571       -2.27434290583885       -1.61768726080775
C           57.93765850583930       -2.80583444572550       -2.03174354000823
C           56.97743337933525       -2.03652612912567       -1.45907233111748
N           58.99308473000458       -1.18796664311300       -0.80938361960615
C           57.64601240544331       -1.02133727411886       -0.70362194518483
C           56.98915107908322       -0.01052217317132        0.02323750339754
C           57.63548301676578        1.00979811455597        0.74647677265248
C           56.95723087831357        2.00015569046160        1.52562278657964
C           57.90924419695819        2.78646650704233        2.08883719071523
C           59.18039414779604        2.29232222944391        1.64300082777105
N           58.97998571551018        1.20794575815983        0.82902749733323
C           60.41692693466868        2.82830794476747        2.01179926566223
C           60.41351731704655        4.02155248368573        2.89154674720067
C           59.79990214920859        5.20956317878359        2.49135889207757
C           59.79085892545967        6.32351754628305        3.31412589134936
C           60.38818280798775        6.26841327070417        4.57629861081479
N           60.44397980849423        7.36583831575261        5.42519465792106
C           59.42506523404982        8.40239475097617        5.32212564038663
C           61.01414896927995        5.08241521662455        4.97844179780776
C           61.02781473980759        3.97905482407160        4.14638477831897
C           61.65948608980763        2.32222246856745        1.61836287097497
C           62.93025170604545        2.91811086783703        1.92980666908770
C           63.88552093106078        2.14411065171545        1.35660361446293
C           63.20696130730654        1.07668960914539        0.67966214483050
N           61.85892652317296        1.20876180421706        0.85519518970996
H           64.92136987682194        0.08873103366660       -0.05608242297232
H           64.98193697608072       -2.10294008555710       -1.48163845579359
H           63.11027416361881       -3.69971218562061       -2.56245052877943
H           61.45675301750318       -2.99554484251124       -4.51122191937994
H           61.47084722587299       -4.98172169433632       -5.96682881491732
H           60.67619571916422       -7.09070511265781       -6.35133960701638
H           58.54391877883505       -8.05615485865710       -5.23473145283795
H           59.75709252644550       -8.96493014986235       -4.29677996246200
H           59.71129443459809       -9.12139346057955       -6.06068163969262
H           59.47712002490002       -7.22932166789734       -2.89323586055871
H           59.46849644016152       -5.24760328461439       -1.45840686368571
H           57.80158563057237       -3.64947226143650       -2.68885627760197
H           55.90842445393137       -2.14175999796838       -1.54021755207727
H           55.88796316258945        2.07681889908570        1.63096180528603
H           57.76468989106960        3.61781359772696        2.75966508884108
H           59.34068940796762        5.26812833417899        1.51042147794009
H           59.31945673625674        7.23448094211196        2.96600038887015
H           60.62415905338499        7.10186013614210        6.38665679829581
H           59.55021778296749        8.95886852016735        4.39246836087426
H           59.55647728526385        9.08808883201398        6.15922167352954
H           58.41456805868513        7.97895527344796        5.35564632588216
H           61.48730776109836        5.03304302728147        5.95360602199511
H           61.49940163582254        3.06075447461358        4.47909125072476
H           63.06727564391507        3.82265870179300        2.50036837656831
H           64.95559131318292        2.28017151131414        1.37222812644376
C           43.44512703525314       -0.00270660957851       -0.03488066216997
C           44.66335246097498       -0.00527858439583       -0.03758229994757
C           54.36080965911427       -0.02365170684276        0.02299130438584
C           55.57922910666709       -0.01953129101471        0.02567792834065
Cu          49.51151854395390       -0.01302112760996       -0.01339022024712
C           46.07170119102322       -0.00640027906090       -0.03489035172291
C           46.73269833506799       -1.08426860097370       -0.65378966265216
C           46.08501382588059       -2.24588452524066       -1.17869213431923
C           47.04571270657443       -3.00727517161413       -1.76439005774010
C           48.28837222545189       -2.31093779895580       -1.60309072035753
N           48.07035937623502       -1.15571926945470       -0.90061313959389
C           49.51979383957057       -2.73211001551369       -2.11517245878084
C           49.52170957969155       -3.89892167598134       -3.02317101684161
C           50.33026693101107       -5.00967472775766       -2.76219932715525
C           50.32859553535928       -6.10136782498068       -3.60893237994873
C           49.52632100747031       -6.11106849199565       -4.75631632477765
N           49.52307136836232       -7.24847765028509       -5.55034301198388
C           49.11934122950840       -7.15157548298515       -6.94667957962213
C           48.71223629584848       -5.00593296341841       -5.02080922572410
C           48.71312175407837       -3.92063234293962       -4.16197499880605
C           50.74841963741422       -2.12742999306843       -1.83074028847177
C           51.99384954080622       -2.45284224171674       -2.46127082689476
C           52.95002477049712       -1.69178478421735       -1.86766736420273
N           50.96044896570617       -1.15761020466370       -0.88713511290720
C           52.29707495124185       -0.89571123004927       -0.87581763022571
C           52.95232894850425       -0.02300182692336        0.01410832298630
C           52.28760947981879        0.85433647851720        0.89246722512166
C           52.92941073226361        1.65162085459128        1.89059589676089
C           51.96892434510177        2.42348819790274        2.46302140072393
C           50.73199192146631        2.10235579799204        1.81405577805285
N           50.95269068624032        1.12478181307820        0.88055741968924
C           49.50343105222971        2.71849770115875        2.07320804451545
C           49.50225607738764        3.89678238592718        2.96637805460208
C           48.68049313655812        3.94102604025728        4.09510898847710
C           48.67999945078689        5.03782494037063        4.93949848789417
C           49.50787937357579        6.13146071559806        4.67000790022308
N           49.50796791512759        7.27857853930895        5.44995801738020
C           49.09434261494446        7.20211964197000        6.84455394475003
C           50.32274511084549        6.09966186602922        3.53145466806761
C           50.32375903374606        4.99691193021134        2.69939120875163
C           48.27735038560798        2.30004513320366        1.54695439778262
C           47.03630325893830        3.00412113503640        1.68444995706975
C           46.08007297598509        2.24211933822974        1.09221643423428
C           46.72910513003406        1.07268739964998        0.58671800292871
N           48.06335576924832        1.13986574540543        0.85106858539426
H           45.03228227968017       -2.45805548013312       -1.09007882148151
H           46.92808423707913       -3.96760476726769       -2.23989125138673
H           50.94916347338417       -5.02228986401245       -1.87156868914946
H           50.95223849694905       -6.96137726024247       -3.38716225728003
H           50.35565822285511       -7.81227791425759       -5.42861482923259
H           48.05119128295692       -6.93990328961667       -7.01310836872914
H           49.67582071573749       -6.36802114499150       -7.47415857121397
H           49.31413160158775       -8.11352793089086       -7.42086065784753
H           48.07522897604562       -4.98661803912781       -5.89651272006912
H           48.09298138011453       -3.06096538323848       -4.39039568534309
H           52.11625645717760       -3.15284511031393       -3.27198364336515
H           54.00264668426108       -1.65394921535103       -2.09399629387518
H           53.97777534198725        1.60837337219416        2.13512266309847
H           52.08324421154875        3.12828983595176        3.27079397387398
H           48.04885345937331        3.09043215567635        4.32747585841931
H           48.03287747708498        5.03638577702885        5.80805326339902
H           50.34596429725356        7.83410468415417        5.32677636955406
H           49.63685308413073        6.41692707246805        7.38346985150805
H           49.29953589994518        8.16620603549963        7.30999129669434
H           48.02326325222894        7.00563786498627        6.90683833397215
H           50.95589549242063        6.95119182260913        3.30524531557231
H           50.95192887056031        4.99188406535740        1.81530884058212
H           46.91708373738899        3.96939144899746        2.14942588474074
H           45.03046062259956        2.46043276307104        0.98463600574418
