300
 energy: -469.049384963417 gnorm: 0.000261195063 xtb: 6.5.1 (b24c23e)
Cu          53.28856881312154        0.02254953703476        0.01323325332343
C           49.87427874423550        0.04702199760405        0.04442721679970
C           50.51453914068281        1.09217956074573        0.69426944514850
C           49.84859370184035        2.17306515146339        1.36507189912922
C           50.81427230291818        2.97558589471731        1.87812751219741
C           52.07924815407128        2.38959310354898        1.52770560757676
N           51.86634787909943        1.25085217797454        0.80489537958073
C           53.32371357183018        2.90386209727134        1.88836980503222
C           53.34105941984681        4.16642515664770        2.68377894670091
C           53.40569354386742        5.39938832011525        2.02794799262609
C           53.45847426583315        5.44828673489800        0.52405687808365
C           53.42057109152282        6.57102616887348        2.77506515666612
C           53.37144952801231        6.53295557882039        4.16507151976172
C           53.40842092214381        7.80979443024434        4.96084875417806
C           53.30847677624104        5.30088626223098        4.80714716930640
C           53.29222199463275        4.11640357086159        4.07942736875675
C           53.22255618859467        2.78604467453496        4.78090299107869
C           54.55416195957913        2.33638939563105        1.56105708587692
C           55.82880492741319        2.86829334850243        1.95171856494435
C           56.77742470722665        2.05065749992005        1.42804394484193
N           54.74527614585916        1.20508944817476        0.81386579545376
C           56.09003011898105        1.01611069910628        0.71296453393834
C           56.72316361466562       -0.00629177851130       -0.01183036719620
C           56.06276459413068       -1.01666857647244       -0.72904230716876
C           56.72231260978325       -2.06221448159306       -1.45427455889490
C           55.75261306477492       -2.86311670003769       -1.96504738871095
C           54.49285768165529       -2.30992170330804       -1.55606705911338
N           54.71369273839373       -1.18232329495239       -0.81146892349477
C           53.24845443637414       -2.85769126220354       -1.86334517200828
C           53.23151041697971       -4.12186753461605       -2.65620094101625
C           53.17929013202638       -4.07434446313569       -4.05240099471033
C           53.14313135868718       -2.74434852624077       -4.75706443557501
C           53.16230089788662       -5.26033811765041       -4.77612552836565
C           53.19710856289870       -6.49281397713192       -4.13024859178557
C           53.16201866643573       -7.76649105474708       -4.93121408919939
C           53.24906319601097       -6.52826581684253       -2.74141126714131
C           53.26718278918835       -5.35374972142312       -1.99742417385231
C           53.32638780577848       -5.40008845554286       -0.49369135414736
C           52.01830625594461       -2.32488379061326       -1.48100100068754
C           50.73891262773252       -2.89212038347365       -1.80922559645991
C           49.79430164365984       -2.07694931769680       -1.27726845312899
C           50.48770854657416       -1.00648395666959       -0.61768875296902
N           51.83488923101034       -1.18404669872785       -0.75344265125252
H           48.78924304115450        0.05441817679611        0.05473133464061
H           48.77796163874866        2.28992441263870        1.42697241501664
H           50.69492576509758        3.88460641852047        2.44603682235749
H           52.58630116002040        4.94938992904964        0.09737691859497
H           54.34898207115117        4.93229021042193        0.15986311058899
H           53.48170490467706        6.47791503292213        0.16829422759719
H           53.46962758419942        7.52811922866297        2.26598182179073
H           52.95457490975281        7.67068328517953        5.94221557404899
H           54.44360256111346        8.12753999800426        5.10602254694514
H           52.88057277616198        8.60772526065860        4.43760236387746
H           53.26995725648194        5.26137593141110        5.89089350497356
H           54.08349265809740        2.17081406822114        4.51265699475896
H           53.20872342096701        2.91610841075742        5.86261956187678
H           52.32152854182627        2.24703690191798        4.48176286339016
H           55.96867821030860        3.75451154048500        2.54985652192405
H           57.84951871882038        2.13485615356677        1.50893155091877
H           57.79159486739250       -2.16457410027885       -1.55015749967397
H           55.86891840693468       -3.75150459085451       -2.56501541164807
H           52.26466002069524       -2.17526646877678       -4.44686714384136
H           53.10990865716158       -2.87689691787355       -5.83806703139336
H           54.02757134093053       -2.15698710605243       -4.50308022783157
H           53.12246669348166       -5.22429505219562       -5.85997339071387
H           53.83116518604117       -7.69957706046573       -5.79006014283567
H           53.45733596106011       -8.61992250518564       -4.32087508805140
H           52.15122869073952       -7.94498405538239       -5.30485693931690
H           53.27703991547573       -7.48417937808204       -2.22859740492953
H           52.46288058365614       -4.88858900338749       -0.06423705900505
H           54.22530685647028       -4.89523420960045       -0.13463640081506
H           53.33709828082520       -6.42912148530650       -0.13565281990533
H           50.59625382795146       -3.79802304569540       -2.37673906076011
H           48.72117278567563       -2.17864894278254       -1.31954673686428
Cu          86.05509603013013       -0.04233825311761       -0.04310418594870
C           89.47075357369332       -0.03032234118569       -0.05877836316774
C           88.84472585684875       -1.08048801515687       -0.71436417376853
C           89.52545949673335       -2.14931204295861       -1.38956299162584
C           88.57084122932170       -2.96722159634364       -1.89907268400895
C           87.29810268453106       -2.40371144585345       -1.54032269973301
N           87.49522404947761       -1.26062090475558       -0.82004332416345
C           86.06057826628290       -2.94658704750933       -1.88245773106934
C           86.06016925788417       -4.21340206886244       -2.67131375148170
C           86.07149197211940       -4.16718321024020       -4.06805359380673
C           86.08520048614052       -2.83800769080045       -4.77507875568536
C           86.06985159513371       -5.35421397102756       -4.79149129109050
C           86.05794713522620       -6.58530647712888       -4.14423901205816
C           86.03501647212360       -7.86456514231461       -4.93665598851266
C           86.04602189213571       -6.61957736801179       -2.75347660910231
C           86.04742362465147       -5.44508951490064       -2.01041083410407
C           86.03450607594807       -5.48961411464717       -0.50553541086991
C           84.82216768704401       -2.40384198757491       -1.54399159571164
C           83.55569170831492       -2.97667208400950       -1.90089880961730
C           82.59529003584022       -2.16791594533683       -1.38498930140163
N           84.61402672906162       -1.25848070516826       -0.82251958645892
C           83.26684198415713       -1.09574503368585       -0.71211459618059
C           82.61753741065490       -0.05314290980142       -0.02949038362404
C           83.26532226388724        0.99378843346406        0.64791513334129
C           82.59219520852473        2.06464797016480        1.32134655721998
C           83.55142267562964        2.88058247399240        1.82811735506380
C           84.81872891270402        2.31291403536687        1.46591260297111
N           84.61225551894033        1.16418483002921        0.74929480678565
C           86.05651576142368        2.86237050043227        1.79554260849469
C           86.05758749078107        4.12951925556537        2.58387352281479
C           86.07909795169364        5.36118742656648        1.92214803481951
C           86.09705039393614        5.40472708637541        0.41728787166911
C           86.08325834766981        6.53546057168592        2.66443500247234
C           86.06588038509884        6.50197136928329        4.05597693328581
C           86.08430110323694        7.78629706445480        4.84035165234433
C           86.04384139661541        5.27205372752325        4.70339785125534
C           86.03905324888427        4.08422172876310        3.98012323531600
C           86.01317979824306        2.75577496857271        4.68818388988105
C           87.29456506939268        2.32615211316263        1.44456976598872
C           88.56653679581051        2.89593547589496        1.79611866894634
C           89.52227486651786        2.08585271895195        1.27633109978955
C           88.84302932334582        1.01472492222435        0.60331928244414
N           87.49325123463187        1.18596521004366        0.72015769769213
H           90.55584449774244       -0.02637508062135       -0.06353024635077
H           90.59758502428042       -2.24804606968629       -1.45687059235615
H           88.70251423206273       -3.87333968734235       -2.46889231162945
H           86.97177874915775       -2.26742642774135       -4.49184105791221
H           85.20797296131387       -2.25140485912574       -4.49559501108612
H           86.08646228140543       -2.97179601727847       -5.85643304544298
H           86.07920490539232       -5.31783664409478       -5.87599769528268
H           86.55871011833676       -8.65968224520047       -4.40521802367868
H           85.00260968929452       -8.18538769784407       -5.09449934881247
H           86.50038220871257       -7.72617228679456       -5.91279257142284
H           86.03681443974581       -7.57568054520806       -2.24028806992524
H           85.14455634355492       -4.98850218892340       -0.11988046185943
H           86.03952843605047       -6.51820151547926       -0.14608385297564
H           86.90828623890079       -4.97344387881511       -0.10333934548503
H           83.42851611918539       -3.88269833928890       -2.47152072947551
H           81.52489760760560       -2.28288377921627       -1.44518483875557
H           81.52155903503953        2.17406000364591        1.38757209215067
H           83.42296169116207        3.78933761021274        2.39410833200090
H           86.99265794138124        4.91106482256370        0.03505531290777
H           86.08469015485622        6.43301530058947        0.05713234145920
H           85.22917097212667        4.88081663777498        0.01244399232560
H           86.09957781208861        7.49174856738164        2.15171118854615
H           85.34529596676994        8.48610366146767        4.44735714585763
H           85.87028204341340        7.60452768237426        5.89348968972280
H           87.06683518212843        8.25721161867406        4.76463096243867
H           86.02959172987572        5.23533848883693        5.78782347090814
H           86.87610300875534        2.15393809935915        4.39701314118756
H           85.11295622640972        2.20048438941119        4.41766443922803
H           86.02867435385348        2.89007274941666        5.76936439994827
H           88.69705234516012        3.79980245481656        2.36975735587429
H           90.59424182528412        2.19100379843894        1.33593842592275
C           58.13536656150321       -0.02004584962767       -0.01881042456560
C           59.35080763876363       -0.03406615872519       -0.02310258127844
C           69.06018791913279       -0.08217733857561       -0.03387173548444
C           70.27741144280240       -0.07826975832992       -0.03921431126477
C           79.99064188503078       -0.05973067318983       -0.02739552159784
C           81.20688185744628       -0.05623140640468       -0.02679348023737
Cu          64.20434607187853       -0.07457296506681       -0.02606764668532
C           60.76254886548920       -0.04770353670836       -0.02434561055005
C           61.41342918537290        0.19510434952904        1.19630618728926
C           60.74449018804712        0.45040273165664        2.43775278655195
C           61.70644725598651        0.57614136056339        3.38756443745511
C           62.96984044623082        0.39965891185220        2.73031698402785
N           62.75978425407390        0.17748378800375        1.39603133974111
C           64.20874969680055        0.42684920892783        3.36852725823344
C           64.21047334102717        0.63281819437996        4.84667302369992
C           64.32374856594993        1.92340169404430        5.37090578214454
C           64.44749559658166        3.10246869016448        4.44291098503086
C           64.31919535161282        2.10439716274819        6.74915355413554
C           64.20359486700887        1.01946224101235        7.61177097395609
C           64.21815964746602        1.22401478140460        9.10272364609575
C           64.09466557551463       -0.26113855772088        7.07905242528488
C           64.09620158998605       -0.46513410774634        5.70426711601860
C           63.97665108905365       -1.85389027396093        5.13520670355339
C           65.44551006647002        0.27736517814147        2.74351143189535
C           66.70929873375403        0.28880674134482        3.42212455916363
C           67.66926327722891        0.14483458550212        2.47292109067856
N           65.65450137243441        0.11948631807120        1.39914469192282
C           67.00041250755484        0.04807204901316        1.20992233517694
C           67.65069610830535       -0.08498698574725       -0.03035450955969
C           66.99572075500990       -0.21798834619141       -1.26816322845155
C           67.66077601637467       -0.32035492128631       -2.53272122085123
C           66.69778484200788       -0.46192667894678       -3.47911398225270
C           65.43579397347374       -0.44197215862691       -2.79738445363996
N           65.64901808183127       -0.28361216620769       -1.45370612388940
C           64.19656715994027       -0.58025124557920       -3.42005182731387
C           64.19475241577746       -0.78321095188288       -4.89858877160205
C           64.10171248839127        0.31968694134363       -5.75249868600842
C           64.00477783081136        1.70811208009282       -5.17837131057990
C           64.10004834028703        0.12071531804314       -7.12793072301310
C           64.18801435561589       -1.15974955673471       -7.66495843233018
C           64.20385205947639       -1.35853232511719       -9.15667551623265
C           64.28152920991285       -2.24965882683364       -6.80601400840918
C           64.28577873066247       -2.07371801120783       -5.42703363585312
C           64.38597216119797       -3.25804880124665       -4.50291229593297
C           62.95897433563570       -0.53640106817339       -2.78032740146612
C           61.69224740855256       -0.69322979001125       -3.43615004608018
C           60.73335299699387       -0.54916768087598       -2.48580405596243
C           61.40765896619148       -0.30323926544077       -1.24535964099154
N           62.75391262045699       -0.30882425953683       -1.44622578996414
H           59.67494905176169        0.51844072804460        2.55809746583283
H           61.58195986019538        0.77124819782295        4.44071755640551
H           65.34784051068483        3.01016747797830        3.83237297842468
H           64.49994686365130        4.03549574952736        5.00318680851858
H           63.59032996694135        3.14586057433747        3.76836592786358
H           64.40496140955388        3.10689415807745        7.15559226073104
H           65.23766172450337        1.12219365083927        9.48210166388137
H           63.59575815884884        0.48101777644056        9.60224948780241
H           63.85701936219691        2.21932151315493        9.36252276564446
H           64.00517130172629       -1.11340230368488        7.74480627978671
H           63.07730584143540       -1.93569395139109        4.52173487193901
H           64.83534106137236       -2.07822296269612        4.49963286755501
H           63.92566024361793       -2.59743197077289        5.93006759326003
H           66.83576203861644        0.39082016956147        4.48806997732612
H           68.73744522189540        0.09946870512395        2.60963975839676
H           68.72878634067250       -0.28051080503324       -2.67216153612468
H           66.82112179005807       -0.56690989183625       -4.54511957823606
H           63.10714681160077        1.80192242699054       -4.56411295456938
H           63.96536679910616        2.45531587277096       -5.97042795087590
H           64.86720075508342        1.91635434893807       -4.54236904279477
H           64.02745936606901        0.97677871761674       -7.79084849509276
H           63.83430684080974       -2.34942743568994       -9.42138035306978
H           65.22500026599047       -1.26415195943534       -9.53354379117621
H           63.58922033912784       -0.60784528600652       -9.65435832811302
H           64.35047935707034       -3.25206896167284       -7.21585773335830
H           64.42417517731053       -4.18985105546899       -5.06638787491867
H           63.52576828573347       -3.28902813439332       -3.83155311869973
H           65.28558748187758       -3.18353262198578       -3.88888527053879
H           61.56375757398111       -0.88793789754393       -4.48890844943412
H           59.66267148457395       -0.59890869386779       -2.60509146407810
Cu          75.13521396757052       -0.05237729025922       -0.04212190259227
C           71.68687225301049       -0.06988145068785       -0.04163418804174
C           72.33678859363414        0.50238190132048        1.06699925394651
C           71.66556605387464        1.10607970558461        2.17916665517490
C           72.62505061520605        1.53416368457452        3.03891068688768
C           73.89067644436392        1.19862567813226        2.45306690617273
N           73.68320064053017        0.57372004590179        1.25212899583824
C           75.12850212312323        1.47031148474953        3.03308295013396
C           75.12442844809894        2.12500831136920        4.37424842682938
C           75.17458968000453        3.51794565635668        4.47340029618185
C           75.23056275053852        4.35813437073307        3.22534786729949
C           75.17002207515704        4.11451790365510        5.72922328714086
C           75.11571414686178        3.34421922276502        6.88576500040009
C           75.13114315502382        3.99622955833168        8.24209908156540
C           75.06611110462684        1.95801015072279        6.77519030090158
C           75.06898030034580        1.34073499834010        5.53024367123618
C           75.01172042824440       -0.15950971909353        5.41762431510910
C           76.36963892473571        1.17772328647505        2.47062640158753
C           77.63334855851015        1.44838901590054        3.09376436444544
C           78.59652179534731        1.02231266208438        2.23699721828898
N           76.58127525194639        0.59604009457907        1.24933911026614
C           77.92829711079945        0.49211014546767        1.08573394290441
C           78.58043281884996       -0.05773936469590       -0.03131920505403
C           77.93330452663920       -0.60026981902196       -1.15491025688665
C           78.60703152804214       -1.12156893822363       -2.30704323137210
C           77.64786872965141       -1.52890313689642       -3.17727392041691
C           76.38108641881510       -1.25933140873630       -2.55990217328255
N           76.58695780367336       -0.69510887021646       -1.32940201097708
C           75.14269064637749       -1.54116993253867       -3.13375217213367
C           75.14529480090830       -2.16430921814074       -4.48991838065644
C           75.09530163078809       -1.35138253862382       -5.62627777937427
C           75.03770875885280        0.14565288621928       -5.47690566683149
C           75.09953364772180       -1.93725896285510       -6.88630138590568
C           75.15088866033209       -3.32019401677988       -7.03134123735609
C           75.17426791316412       -3.93799472317395       -8.40349106117579
C           75.19966602385806       -4.11917082887095       -5.89413995920234
C           75.19708726391627       -3.55425108699461       -4.62373415019646
C           75.24648452475313       -4.42524307447048       -3.39671977062259
C           73.90214390008256       -1.28687837252103       -2.55150063077114
C           72.63981410590057       -1.62794582098436       -3.14125028222188
C           71.67645368712513       -1.22559051125534       -2.27340418670709
C           72.34174611471705       -0.62842896905254       -1.15421586661480
N           73.68876940872499       -0.68170524007386       -1.34158927138211
H           70.59610180896075        1.19545805405371        2.27891605913301
H           72.49703773885358        2.03795517190066        3.98357474871442
H           76.13028536388990        4.12538833770128        2.65246101436730
H           75.23758592742304        5.41980655456066        3.47034824415233
H           74.36765647656171        4.15058098169617        2.58976628599327
H           75.20762027270476        5.19632225625907        5.80556619579924
H           76.14839286422755        4.00180238218890        8.64056702664587
H           74.49789906387497        3.44935927214343        8.94150853597796
H           74.78291825963704        5.02752973554759        8.18303467853595
H           75.02289212635279        1.34950213298606        7.67264711363124
H           74.11400824023721       -0.46406789338097        4.87608020785814
H           75.87656808941533       -0.53167267987512        4.86523718440114
H           74.99924186526273       -0.62404735734809        6.40314404199257
H           77.75736048876895        1.90197011496313        4.06409723541686
H           79.66630872037157        1.05494149679540        2.36784120540768
H           79.67756977853358       -1.16017122640781       -2.42977354372278
H           77.77664436110837       -1.97033915176484       -4.15257416367238
H           74.14713007797668        0.43624777627806       -4.91636122647249
H           75.01208074973808        0.63363188533469       -6.45079414305167
H           75.90963593977668        0.50548830998074       -4.92737477888307
H           75.06069421650609       -1.30643526826099       -7.76843171268039
H           74.82029887547789       -4.96859305919285       -8.37324848060455
H           76.19478740457070       -3.93906160022872       -8.79356730964242
H           74.54974165634619       -3.37036454884435       -9.09413548190840
H           75.23857824997219       -5.19869509789277       -5.99736466176569
H           75.26662412865167       -5.48025153481677       -3.66830008978055
H           74.37388822155513       -4.24193707330334       -2.76688538866404
H           76.13681932403986       -4.19855611756655       -2.80703872601747
H           72.51660544975631       -2.11870647461395       -4.09339873613428
H           70.60803972834972       -1.32686851514609       -2.37299201579451
