132
 energy: -256.065630962637 gnorm: 0.000373283338 xtb: 6.5.1 (b24c23e)
Zn          13.41891621617616        0.04410278719380       -0.01513062376299
C           10.01568069362085        0.07910631637565       -0.20523285361386
C           10.64364239260470        1.31645334059481       -0.12892764751712
C            9.96737965377760        2.58244488457733       -0.08158185691387
C           10.92384550541516        3.54065621522407        0.00055060827523
C           12.19823078474696        2.87192685591398       -0.00654962662190
N           11.99213757924088        1.52487348641969       -0.07505754138128
C           13.44784953809982        3.50017769869534        0.06788403768606
C           13.46070508986513        4.98487093323322        0.10748049757588
C           12.93047227454597        5.72022041416822       -0.95301635629705
C           12.94574905357242        7.10958568652879       -0.91568123230908
O           12.43871572648833        7.83337619446434       -1.94401649262600
C           13.48775699432032        7.76975795761709        0.18811195691901
O           13.48689214011329        9.14042776609339        0.19868824886209
C           14.01496790793341        7.03613465387601        1.24765303490824
O           14.52674164741649        7.75334636818771        2.29763436513067
C           14.00603290558722        5.64739960636396        1.21076609757735
C           14.68565264532524        2.84850313417519        0.10757236182274
C           15.96687139296356        3.49883763304506        0.12321478158215
C           16.91113467471837        2.52383195525212        0.15225535095621
N           14.87742176003655        1.49215626084368        0.11256502987082
C           16.21829330020231        1.26937171438879        0.14548307442601
C           16.84817499842133        0.00798638611362        0.15864953025255
C           16.19468843046492       -1.24028470664475        0.11737376130944
C           16.86255703403292       -2.50864842191541        0.10946411220198
C           15.90024038497362       -3.46339186742845        0.04090388778606
C           14.63281156756670       -2.78670280236281        0.01277316295062
N           14.85046609177124       -1.43491109740061        0.05684828930175
C           13.38540613227689       -3.41143706105624       -0.08629538459300
C           13.37070940560621       -4.89727987720412       -0.11321211505811
C           13.83064295461501       -5.62207699977736        0.98619883820082
C           13.81245029013732       -7.01174784507760        0.96257585422423
O           14.24838284219842       -7.72613833164577        2.02927345501694
C           13.34151101685134       -7.68186044517011       -0.16753982338527
O           13.33958921181724       -9.05269834029623       -0.16429218502571
C           12.88671965096937       -6.95812372242285       -1.26654204714038
O           12.44389896876092       -7.68492405751535       -2.34117259831416
C           12.89485148638007       -5.56891352276920       -1.24230026255282
C           12.14923882859509       -2.75786206522922       -0.16311749595958
C           10.86482953340193       -3.40367079205948       -0.22526023247886
C            9.92535234346976       -2.42564910852563       -0.26281973660163
C           10.62253852271774       -1.17118718235686       -0.21498841342046
N           11.96633140856667       -1.40588341892223       -0.15532233181252
H            8.93095366241566        0.08982738692045       -0.24998494340835
H            8.89625714981971        2.70954082270247       -0.10111523247619
H           10.78287534845866        4.60723005978200        0.07169774412700
H           12.52208356130300        5.21917896007241       -1.82118837226737
H           12.54238676621202        8.77587373081162       -1.73274037905273
H           13.89837915656182        9.43225001321814        1.02769500271317
H           14.87530439932946        7.16335892234687        2.97872334624708
H           14.40481376925799        5.08327072258321        2.04578160520618
H           16.12416902273496        4.56516727210362        0.09844341895998
H           17.98347126240980        2.63696410316171        0.16899811138683
H           17.93192300316595       -2.64324508304941        0.14577932814880
H           16.03496950439850       -4.53226962398320        0.00094926135619
H           14.18710068406631       -5.11229074011972        1.87195370315766
H           14.15783211451185       -8.67050629755458        1.82034725472031
H           12.98543615048012       -9.35223432378087       -1.01656987177923
H           12.15366954205420       -7.10099625108145       -3.05398547184046
H           12.55072910783998       -5.01212717884796       -2.10605336207399
H           10.70593641892916       -4.47028888410129       -0.22667761365903
H            8.85290033214310       -2.53278657420406       -0.31071764844100
Zn          32.01953071625407       -0.04474143297209       -0.02630955311254
C           35.42474734702257       -0.05756308591842       -0.18826307572680
C           34.79732338556252       -1.29518706352413       -0.26461176275483
C           35.47404441183146       -2.55798323556882       -0.36455617282870
C           34.51770953571894       -3.51913074852181       -0.40174586014617
C           33.24314099074435       -2.85418616064957       -0.33456096755364
N           33.44869922052165       -1.50841656617364       -0.24338952574137
C           31.99394894677555       -3.48710884330121       -0.33563389253112
C           31.98139781077323       -4.96724551617351       -0.46261216942799
C           32.49809453808476       -5.57865264362501       -1.60508182093721
C           32.47945264630251       -6.96343655463843       -1.72433366653604
O           32.97128499933110       -7.56742491365698       -2.83410708241689
C           31.94947293859942       -7.74303280377837       -0.69509097688683
O           31.94680113550291       -9.10620984770610       -0.83913088177987
C           31.43739349962492       -7.13299221190005        0.44700492348478
O           30.93771289283366       -7.96332692967222        1.41633936642620
C           31.44802494996287       -5.74884957438468        0.56592236202751
C           30.75541271729346       -2.84522723860150       -0.22663113676410
C           29.47523948115851       -3.49512315343671       -0.28546346813432
C           28.52940709236601       -2.53022325527321       -0.15346384624207
N           30.56166320609720       -1.49784183432871       -0.07380403092012
C           29.22035974964419       -1.28157980905639       -0.02142485734757
C           28.58853505819510       -0.02990479999376        0.12677480533409
C           29.24061846731468        1.21597500729181        0.22518079812008
C           28.57142590848364        2.47743367286547        0.35092903242929
C           29.53331244242625        3.43395568382819        0.39762880899223
C           30.80163237496880        2.76450914976595        0.30754258624927
N           30.58507138837565        1.41620449396906        0.19863045529144
C           32.04938287291405        3.39602514075406        0.29504306156391
C           32.06290320121219        4.87535461608088        0.43792688949831
C           31.59425011537046        5.46967338837850        1.60952125975600
C           31.61258018321097        6.85291812907893        1.74538142349551
O           31.16890623978011        7.44080807997048        2.88367336358317
C           32.09167133781641        7.64759977697714        0.70280248664350
O           32.09341791848949        9.00911318349536        0.86300336398096
C           32.55470297893197        7.05423634305224       -0.46853745831546
O           33.00501847314438        7.89897516973321       -1.44972837130141
C           32.54710147826748        5.67134696474368       -0.60333809165386
C           33.28721597350350        2.75532377982492        0.16009089007491
C           34.57135427031334        3.40397681017985        0.18831445307777
C           35.51254818791953        2.43677768895900        0.04946908876759
C           34.81651379384441        1.18521779599661       -0.05670285660494
N           33.47183016575021        1.41141782713812        0.01433102425365
H           36.50984891538624       -0.06288639989640       -0.22398871397501
H           36.54532664144100       -2.68179148590881       -0.39411869981237
H           34.65833271447161       -4.58663644615488       -0.45861717692041
H           32.89791967598059       -4.98327546006601       -2.41577288128132
H           32.86654064613860       -8.52753162455471       -2.72964828495868
H           31.54526616023277       -9.48926050666990       -0.04304435203786
H           30.60164477128122       -7.45345321990728        2.16501229527628
H           31.05945472744525       -5.28143698446110        1.46318431520027
H           29.32017462027020       -4.55283397853054       -0.42561007511815
H           27.45717590644314       -2.64564503630740       -0.15266067879672
H           27.50161480293454        2.60717578863669        0.39117828584332
H           29.39805383227776        4.50073086234579        0.47494263986752
H           31.23090303031833        4.86194968158874        2.42817727218438
H           31.26179225459436        8.40278393028224        2.78545755331270
H           32.45257207854050        9.40386320247955        0.05254776625123
H           33.29966969444495        7.40025616905540       -2.22292858014594
H           32.89839124267107        5.21662963127949       -1.52224461623973
H           34.72858509633582        4.46369159517142        0.31169053568337
H           36.58536332650016        2.54871743624611        0.02732976007600
C           18.25220634996873       -0.00443214409102        0.19757650618543
C           19.47677933919472       -0.00835987401949        0.22112310581580
C           20.81890237971292       -0.01298173154792        0.23655598065190
C           22.04970714953739       -0.01406159042356        0.24068703863982
C           23.38721879261799       -0.01575188935022        0.23482956677339
C           24.61797462265050       -0.01547642246097        0.21849773771085
C           25.96002101563881       -0.01759585736233        0.19540533793136
C           27.18448923458853       -0.02376074520959        0.16605108413665
