260
 energy: -498.810591622025 gnorm: 0.000149638355 xtb: 6.5.1 (b24c23e)
C           41.69675626199391       -0.08504049272104       -0.00978685205930
C           42.31101006310302       -1.29415992211819        0.28894429715585
C           41.66431653841105       -2.53465220108617        0.55133421807348
C           42.62950671354280       -3.46659873785841        0.80816011404477
C           43.89712300652484       -2.82202840332625        0.72225230511731
N           43.65461650654306       -1.51849736608733        0.39695857311977
C           45.16404770688641       -3.39005752554002        0.90180265700746
C           45.20345721506873       -4.82432329417860        1.26973600082833
C           45.85069245874092       -5.74661108702318        0.44128149329514
C           45.88651997138918       -7.08802055469508        0.77502461354405
C           45.27347038273356       -7.51180153162579        1.95080751093995
N           45.30785104998435       -8.91928480892703        2.30626660320116
O           45.88223098888905       -9.66923840227397        1.55918979287044
O           44.75893815604343       -9.25043367384254        3.32586160616067
C           44.62691704633866       -6.60990890334736        2.79115464641311
C           44.59250092906724       -5.27129246010863        2.44549069280405
C           46.37746801595689       -2.71092182564131        0.76008936772584
C           47.67630050432220       -3.30627974131650        1.02027990284117
C           48.59181799033001       -2.34626987491725        0.77648895417856
N           46.52499677521197       -1.40999533760130        0.38916398144144
C           47.85100954239375       -1.16483616842461        0.37785438182255
C           48.48294060651303        0.04398225994530        0.02223882844219
C           47.84254778076073        1.24632509160111       -0.33319129321012
C           48.48284963992230        2.45603474681300       -0.71137849481262
C           47.51285719412405        3.38688516383079       -0.96048338729575
C           46.24911252261895        2.77453863735249       -0.73250488062499
N           46.50003065281614        1.47974563030926       -0.36473650606356
C           44.98280613397766        3.35159630521686       -0.88316027555383
C           44.94237197700193        4.78111390276130       -1.26633434156161
C           44.31281106028199        5.17652679119357       -2.45106529150708
C           44.27197575369016        6.50987812240231       -2.81501339840172
C           44.86142750670152        7.45897341958767       -1.98448558327077
N           44.81948687734211        8.86075228071931       -2.36032729946770
O           44.26175436406437        9.14600321610322       -3.38897090248294
O           45.34602179659787        9.65234745588095       -1.62076880716425
C           45.49087816153046        7.08718521382239       -0.79982095905717
C           45.53116052265062        5.75047267631933       -0.44797771291439
C           43.76796621118007        2.68115962523544       -0.69978365756878
C           42.45984497259115        3.31067461417873       -0.80256867805507
C           41.55174914408862        2.34525252887743       -0.55843348935861
C           42.30351456655973        1.13049125265360       -0.29502523293338
N           43.63505730295905        1.37327411670629       -0.37872542760323
H           40.61165053549961       -0.10151063125085       -0.01851487463814
H           40.59649959738376       -2.68288145785411        0.53547236101914
H           42.48203452135588       -4.51134510606135        1.02843116866685
H           44.37718790458215       -0.82109744659106        0.25272597810427
H           46.31262966273754       -5.40610804944831       -0.47801936281415
H           46.37996389938561       -7.81052376227794        0.13613793365674
H           44.16222829428408       -6.96417659257846        3.70343660904443
H           44.10485476267230       -4.55776059531669        3.09948382580069
H           47.84326156454257       -4.31581247052875        1.35899248152326
H           49.66515686527568       -2.40398670532372        0.85936525497432
H           49.55030892793329        2.58638923637897       -0.78594697624087
H           47.65759651025515        4.40442736202276       -1.28469327842887
H           45.77975763989561        0.79616181426745       -0.15574805199762
H           43.86944475258663        4.42688841018696       -3.09596304965656
H           43.79229571261994        6.82447898205185       -3.73404537250170
H           45.93742706625351        7.84559134997132       -0.16806501670364
H           46.00516999370746        5.45092092268805        0.47951190034086
H           42.28508672105605        4.35254306942667       -1.01724562734917
H           40.47583640172969        2.41854237272142       -0.54190093323734
C           96.50726867873823        0.05627737054338       -0.05331956022209
C           95.89616157395274        1.24692919882673       -0.42398475109713
C           96.54635676206428        2.44422634590851       -0.83583670635792
C           95.58357234696167        3.37609216556033       -1.10174899381380
C           94.31390526722764        2.78058853970404       -0.85065255889005
N           94.55293972897582        1.49618115088460       -0.45452032184414
C           93.04854648776619        3.36011848319589       -1.00221366936508
C           93.01501611310256        4.77944742870125       -1.42517631407704
C           92.38520279073079        5.14663126692705       -2.61850726856151
C           92.35496928103552        6.46970171066713       -3.01961210281194
C           92.95591451195580        7.43624490784017       -2.21804379863421
N           92.92637150625494        8.82732728724591       -2.63355351637626
O           92.36863408529410        9.08854656600855       -3.66843894520253
O           93.46240464185435        9.63437518569827       -1.91801468460402
C           93.58567629442456        7.09244972908714       -1.02522685713092
C           93.61484922766958        5.76578822748994       -0.63596422491005
C           91.83270635387389        2.70638419080959       -0.78351874846687
C           90.53450329359457        3.34884021315728       -0.88891586121175
C           89.61648923905213        2.40365659554928       -0.60075728994838
N           91.68198327997384        1.40434993150563       -0.41766887830493
C           90.35503631692102        1.18992165928604       -0.30920741348504
C           89.72059642541309       -0.02098778859041        0.03419648500730
C           90.35795841811256       -1.22939287749670        0.37411326851094
C           89.71410618054378       -2.45393161202745        0.69429582419556
C           90.68157238891276       -3.38071186687750        0.96695269766846
C           91.94740601939019       -2.74578647536176        0.83061746416681
N           91.70003120070658       -1.45001776777148        0.46371846720191
C           93.21217116177461       -3.32211835829339        0.99587392901297
C           93.24887065058273       -4.74215474999281        1.41331353365920
C           93.86790831464920       -5.69924629893024        0.60271040808759
C           93.90414517307414       -7.02763866652918        0.98475313612507
C           93.32065453552032       -7.40341503904713        2.19154074531721
N           93.35688421454519       -8.79667946954170        2.59837448572262
O           93.90466273791164       -9.57819424099270        1.86366675548679
O           92.83586991027194       -9.08569337507280        3.64514165961186
C           92.70224214410392       -6.46645332235289        3.01465629450780
C           92.66656512636101       -5.14141831269232        2.62056430981436
C           94.42881895619493       -2.65976085176135        0.79585830299002
C           95.73553273485398       -3.25608037485224        1.03024345335098
C           96.64616192736052       -2.30749609574135        0.73492811318145
C           95.89740722499855       -1.12977884721506        0.33179331442463
N           94.56513717204224       -1.37614725104581        0.38967544507648
H           97.59241494483182        0.06351699057882       -0.06769333980912
H           97.61478261375142        2.56195862961446       -0.91987582527539
H           95.73385270007918        4.38469108789711       -1.45091950072381
H           93.82841554640345        0.82527015523812       -0.22166927209978
H           91.93246052850095        4.38315681783671       -3.24023772323918
H           91.87486593313014        6.76278428357183       -3.94550936344816
H           94.04152889463917        7.86415085276039       -0.41664611303744
H           94.08960709072792        5.48795483001189        0.29787984275648
H           90.36935432556083        4.38527171856152       -1.13443994375454
H           88.54271781867494        2.49561701425146       -0.57193364541566
H           88.64607996189568       -2.59955178752400        0.70528475911446
H           90.53363130323159       -4.41583227610478        1.22786594875412
H           92.42231103434392       -0.76213297133997        0.27694968594377
H           94.30648811481747       -5.39654992124097       -0.34092810300923
H           94.37548151741595       -7.77676892121462        0.35998998610914
H           92.26032164632316       -6.78344925144928        3.95163224074749
H           92.20111942705749       -4.40076042069438        3.26042967966425
H           95.90773232935892       -4.25864143528002        1.38708542188433
H           97.72202843841954       -2.36544454652893        0.78377299067651
C           53.68486088356123        0.06874287725487       -0.02813489423064
C           52.45644126463262        0.07394432497476       -0.01295418849415
C           51.11250705594479        0.07202020322415        0.00166647544336
C           49.88858411178337        0.06243389923997        0.01493192895625
C           55.02856765893864        0.05859238951661       -0.04445206781075
C           56.25260943593686        0.04259898722422       -0.05803390352450
C           69.71545911366468       -0.06113875328619       -0.07027495791306
C           68.48668114282843       -0.05339654904164       -0.07414699981656
C           67.14334927145536       -0.04665953380720       -0.07738341195913
C           65.91896913009872       -0.03882690618512       -0.08276840035633
C           71.05879617191542       -0.06834825659921       -0.06729415937645
C           72.28316707730644       -0.07743356455346       -0.06322175345463
C           85.74677615593468       -0.06655084666588        0.03867661604822
C           84.51837402268538       -0.07663849522361        0.03214161245618
C           83.17446247145637       -0.08556180003715        0.02193600819627
C           81.95038589182597       -0.08984280326106        0.00820701412265
C           87.09086389532688       -0.05375240824309        0.04175015786438
C           88.31473046395892       -0.03771343624598        0.04102100680156
C           57.65716484648011        0.02577576213854       -0.07115444806210
C           58.28901352173291        1.02687967060874       -0.83408451259310
C           57.64506377490138        2.05733209179347       -1.56640673691432
C           58.61201192077504        2.79831148047555       -2.18896910294188
C           59.87499091627996        2.23428293328576       -1.86061990995888
N           59.62978985857412        1.17430339263671       -1.03044712023641
C           61.13751802666106        2.67685060921174       -2.27655091282038
C           61.15700990358845        3.82404238759806       -3.21447944288357
C           61.79503811799520        5.01631512064484       -2.85837655485246
C           61.81529353890843        6.09033032928175       -3.72927306693608
C           61.19591288375795        5.97010981194593       -4.97006492989137
N           61.21564646677708        7.09415870186867       -5.88959404160410
O           60.65881100815284        6.95755256876902       -6.94866381784154
O           61.78716144202462        8.09343980662630       -5.53623043425468
C           60.55731222390081        4.79151091610459       -5.34501265414227
C           60.53824543746067        3.72522347728278       -4.46456610386171
C           62.36107808422641        2.13020343383080       -1.88445126626638
C           63.64799107924509        2.57740138567224       -2.38792881197649
C           64.58144234239984        1.82134696250222       -1.77455114257152
N           62.53300492162553        1.10681903720148       -1.00364631203187
C           63.86312126961061        0.90788344691175       -0.90768295719222
C           64.51473490585497       -0.03313265307979       -0.08521787055926
C           63.88338956849157       -0.98138869522116        0.74311052941725
C           64.52853552448990       -1.91314725510939        1.59666111838592
C           63.56152457875357       -2.66364301837246        2.20742945161962
C           62.29712172100650       -2.21687144576514        1.73523876043574
N           62.54209210430962       -1.19155339476169        0.86222135486558
C           61.03419288602664       -2.70275349457881        2.09730681050706
C           61.01420047273218       -3.84947964081098        3.03571074655092
C           61.62340389199723       -5.05924546015852        2.68835758081509
C           61.60674678524043       -6.13133889108362        3.56184077413607
C           60.97989205102805       -5.99122876276903        4.79669675816136
N           60.96422051051375       -7.11232664819012        5.71999867571780
O           60.40394687389137       -6.95791360049167        6.77469071089639
O           61.51378832549854       -8.12656940963797        5.37438100952317
C           60.36887731239488       -4.79524446266515        5.16261819389184
C           60.38676364267283       -3.73099415071113        4.27981959696150
C           59.81024341340813       -2.19870799262370        1.65192180920342
C           58.52228040312814       -2.77401349637624        1.99778147220842
C           57.58879893791902       -2.01194204572715        1.39190171512945
C           58.30797230310500       -0.98084212632237        0.66988105956497
N           59.63897607943409       -1.12593926862726        0.83228615403785
H           56.57841536332081        2.20840353447486       -1.60321456147916
H           58.46459554291199        3.66528482062283       -2.81187009068165
H           60.34843298981099        0.58794715840147       -0.61932252968606
H           62.26276201528195        5.10136769883748       -1.88451411496509
H           62.30196422433647        7.01997891434726       -3.45986185883331
H           60.08695663951700        4.72166213050110       -6.31844946778639
H           60.05638938665906        2.79760030275900       -4.75087215563669
H           63.79552801090063        3.35311254456752       -3.12155077373987
H           65.65323787724773        1.85249041004172       -1.88669120012036
H           65.59598770990569       -1.98915020291864        1.72572698422975
H           63.71008012231714       -3.44988134842965        2.92930643628670
H           61.82273396242739       -0.66334988830002        0.37973347362564
H           62.09620233119124       -5.16084506165157        1.71842558014650
H           62.07046812401781       -7.07445278685729        3.29878769638875
H           59.89086914363468       -4.71075088360129        6.13114331822842
H           59.92596817581803       -2.79039026349567        4.55793753689184
H           58.37406698238573       -3.65037104339144        2.60747508326058
H           56.51634956801552       -2.12060816516261        1.40881886496573
C           73.68742302943562       -0.08345284978274       -0.05970794406905
C           74.31965028973413        0.91487583536391       -0.82618150099496
C           73.67519508657598        1.93368924219210       -1.57429978137324
C           74.64295972666766        2.68196367210915       -2.18655539480130
C           75.90720869089580        2.13419076828698       -1.83596006235669
N           75.66128952777507        1.07542816742493       -1.00412621969834
C           77.17056145531335        2.59112317045812       -2.23240520930206
C           77.19044393072221        3.73751069999209       -3.17150298630865
C           77.80422013173816        4.93951113409531       -2.80584571484770
C           77.82292795895840        6.01301251395147       -3.67747732281714
C           77.22666110204342        5.88235124924792       -4.92846815988014
N           77.24455219919685        7.00599495796823       -5.84867990445501
O           76.71021851295475        6.85908059502789       -6.91787247318988
O           77.79180234275317        8.01522711624129       -5.48546198576738
C           76.61278610776220        4.69381023228148       -5.31311287364966
C           76.59494066659271        3.62809320211968       -4.43193985133255
C           78.39449182981873        2.05933626073631       -1.82079220940380
C           79.68351199999402        2.52335548975481       -2.30308396666086
C           80.61628988776617        1.77488886914764       -1.67952303787078
N           78.56474091984683        1.03482515532257       -0.94132503345735
C           79.89574539735545        0.84905745199785       -0.82776264575607
C           80.54555567091136       -0.09417034020818       -0.00687183987441
C           79.91323485827317       -1.05352182758996        0.80744655937102
C           80.55712796856017       -1.98874403417421        1.65814406144134
C           79.58946778112876       -2.74497858000715        2.26081570481071
C           78.32592376929902       -2.29819787325185        1.78646424328447
N           78.57184400558845       -1.26850514685972        0.91913539933762
C           77.06246458113004       -2.78569125038632        2.14521500895278
C           77.04097204750387       -3.93304079310129        3.08299720212083
C           77.64717114034880       -5.14384315987599        2.73416516177657
C           77.62647667821319       -6.21743497355354        3.60573362184875
C           76.99877032874193       -6.07769894685769        4.84020918518828
N           76.97785925444624       -7.20071397723304        5.76099263668013
O           76.41615769756325       -7.04687656638700        6.81501696505945
O           77.52404700266612       -8.21627869770751        5.41378654796727
C           76.39151771448174       -4.88034760218271        5.20795479430829
C           76.41341886080605       -3.81461346568109        4.32704141546877
C           75.83909202388965       -2.28388150918508        1.69652988738099
C           74.55099744376741       -2.85955415509303        2.04159517931164
C           73.61822800040899       -2.10425004824330        1.42629750409751
C           74.33800587721610       -1.07696885386478        0.69934557370563
N           75.66830009549143       -1.21632817837067        0.86962977803979
H           72.60763829137629        2.07290782077228       -1.62750000643279
H           74.49516091970074        3.54382660697229       -2.81640141497354
H           76.38021167079825        0.49947521443794       -0.57902279821747
H           78.25387991095945        5.03251557526478       -1.82423775903040
H           78.29067120358908        6.95021534215942       -3.40080802852821
H           76.16008709965450        4.61603300671750       -6.29428890580031
H           76.13209213369765        2.69302487437642       -4.72529666791295
H           79.83305287926906        3.30426547014381       -3.03074784588592
H           81.68915521560673        1.81852767946351       -1.77593081008198
H           81.62424612030203       -2.06275294926025        1.79116328702435
H           79.73692175176545       -3.53502946475803        2.97875834929088
H           77.85314884858991       -0.73948202035084        0.43653430547303
H           78.12049120496191       -5.24513029096521        1.76445663437560
H           78.08735896404706       -7.16156144513686        3.34132972480188
H           75.91295053590464       -4.79611658688249        6.17622817579510
H           75.95523800347559       -2.87309611697688        4.60638684138968
H           74.40220997352409       -3.73162454336163        2.65726353735251
H           72.54595493984229       -2.21532254223858        1.43960523971895
