114
 energy: -204.227638063119 gnorm: 0.000666937256 xtb: 6.5.1 (b24c23e)
Ni          11.09377592842670       -0.04829880756778       -0.02004250843224
C            7.69956091008631       -0.06795825210601       -0.07477757432939
C            8.35253319669648       -1.28220763241309       -0.04375315017041
C            7.67293761054162       -2.54147185789392       -0.01763192597063
C            8.62553423274331       -3.49359895278483        0.11295781745748
C            9.88798341823692       -2.81507486546881        0.15379491162996
N            9.71074601669381       -1.45851448642437        0.04441328058589
C           11.10284181579216       -3.45549281539462        0.35744365932758
C           11.10686598214298       -4.92783676514400        0.53416833878093
C           11.47082071828099       -5.50873992586079        1.74772248871754
C           11.45288016744221       -6.88966461184546        1.86679282586172
N           11.10769052449442       -7.69805284193196        0.86996937209904
C           10.76347154506522       -7.15153886268357       -0.29156815097361
C           10.74500213561969       -5.78221476207710       -0.50597682666279
C           12.31414200151664       -2.77941542254081        0.39546078459170
C           13.57879483767472       -3.43036227483704        0.55789960623327
C           14.52954165762970       -2.47382591587691        0.43456820552537
N           12.48966256020423       -1.42967013733946        0.18684909856224
C           13.84453482978706       -1.24341810639338        0.19579169011397
C           14.50811749764633       -0.03778962558673       -0.04699166013761
C           13.83298264790672        1.16718252955576       -0.25902380858686
C           14.50448371514077        2.40140499237588       -0.51544583380384
C           13.54749849470955        3.35742278728747       -0.58391686156989
C           12.29343172514261        2.70319272432348       -0.36360695865148
N           12.47898396225950        1.34959010287698       -0.19505436990258
C           11.07584092376313        3.36848555368232       -0.31580221928379
C           11.06950403889970        4.84452906846188       -0.44285523241816
C           10.42844082934841        5.47524533364474       -1.50842620865139
C           10.45196399813328        6.85871113916098       -1.58780488836193
N           11.05772953054082        7.62555188857170       -0.68699352720787
C           11.66980122116400        7.03223150816077        0.33274324030023
C           11.70532656333921        5.65623508116126        0.49560452848727
C            9.86330734166823        2.70735926285979       -0.16975511427970
C            8.59498737003602        3.37229240149671       -0.09803043145829
C            7.64873889658027        2.40622576716377       -0.04560758161332
C            8.33995430310628        1.15341154342476       -0.06778773010379
N            9.69803838981926        1.34590796377974       -0.11560953863619
H            6.61594419329748       -0.07368429243616       -0.09124218575055
H            6.60275821576553       -2.65930947183259       -0.07819407668030
H            8.49806107993695       -4.56123341834813        0.18778880362638
H           11.75051017698635       -4.88766529319034        2.59028322059390
H           11.72712606990974       -7.36627702618376        2.80338171015228
H           10.48968141952133       -7.83827618052933       -1.08718306962172
H           10.46642363352378       -5.38081983023868       -1.47300632086133
H           13.71142984488680       -4.48630067366521        0.72751418986643
H           15.60117608513389       -2.57726922243093        0.48913202795796
H           15.57165825308531        2.50651026229101       -0.62554532379843
H           13.66890543936027        4.41126572267840       -0.77370492179342
H            9.93197260206157        4.88951404865435       -2.27287019077765
H            9.96349949898046        7.37234129559528       -2.41070372350242
H           12.15396550708863        7.68565824076954        1.05259040117544
H           12.20793449161857        5.21689202402968        1.34899720371373
H            8.46008397776790        4.44156228899435       -0.08663482277226
H            6.57689228128603        2.51149725339620        0.00822016129269
Ni          27.09632531032919        0.03986019755517       -0.03298228454019
C           30.49061906692521        0.04336473529764       -0.08720844643914
C           29.83793307774247        1.21410110392390       -0.41141401794577
C           30.51770268118338        2.42661660546308       -0.75198100799856
C           29.56506124878016        3.37524417857947       -0.90571945631664
C           28.30245366858446        2.73768486798462       -0.67079619488918
N           28.47963537201207        1.40810389015414       -0.38026522935576
C           27.08745455079972        3.40941655125837       -0.66350070491759
C           27.08338665674496        4.86943562941800       -0.92306752876115
C           26.71849964613100        5.77836469832010        0.06857249971542
C           26.73620846278818        7.13414247479635       -0.21950427148353
N           27.08206304969589        7.61742872908862       -1.40825511391329
C           27.42728712819495        6.75655294946873       -2.36011588417800
C           27.44605898421337        5.38411871660619       -2.16659871863918
C           25.87611074284894        2.77355857644489       -0.43084928452042
C           24.61144426230570        3.44357439106946       -0.46505456423470
C           23.66069573176071        2.49256458908721       -0.30463616114473
N           25.70057166633181        1.42150527100809       -0.23762033329439
C           24.34568052191643        1.24589411805438       -0.17508579918779
C           23.68195463081985        0.02181819964081       -0.05687566687819
C           24.35693687817625       -1.19280006555002        0.09068628252915
C           23.68534800275519       -2.44821484525994        0.20403979195743
C           24.64229163700487       -3.38294533835481        0.41621066671785
C           25.89637772731559       -2.69296730811026        0.43700489791012
N           25.71090283350048       -1.34877986919841        0.20505345304892
C           27.11394308420722       -3.31562095118727        0.67623078800040
C           27.12034655436509       -4.76494354131972        0.98330194771599
C           27.76197294056244       -5.67783099648021        0.14714930991547
C           27.73864234871018       -7.02470561553695        0.47305906569790
N           27.13253026604234       -7.49696096917183        1.55752292469188
C           26.51988563726529       -6.63316436192085        2.36067137654774
C           26.48414206783583       -5.26920169027606        2.11679903761863
C           28.32640897671806       -2.64039590218102        0.62480202038185
C           29.59454486933840       -3.25570588119849        0.88773464923802
C           30.54087415514756       -2.31578653829353        0.65880618060202
C           29.84988673743915       -1.12343471985597        0.27325120910898
N           28.49181315084478       -1.32177066255853        0.28173435248141
H           31.57425941485948        0.04417775022497       -0.10308469816125
H           31.58799338388177        2.52201858468889       -0.84263363571234
H           29.69258030776101        4.41844431467450       -1.14482055336805
H           26.43824810543693        5.42936701603947        1.05524737376578
H           26.46117000268624        7.86267555143474        0.53757008591422
H           27.70162777839073        7.18202379566943       -3.32099303556593
H           27.72546903499779        4.71869532080524       -2.97469021149484
H           24.47881504252454        4.50316769182964       -0.61007688587792
H           22.58906068985858        2.60737942509727       -0.28253880074691
H           22.61816435795437       -2.58073984129236        0.12926673117124
H           24.52079598389432       -4.44645821081107        0.54081056523255
H           28.25876439017164       -5.33928146033139       -0.75424934310618
H           28.22759491477732       -7.75510005433775       -0.16492486244104
H           26.03544134338867       -7.04943043496126        3.23907803684651
H           25.98109943142936       -4.60102416165694        2.80556841715094
H           29.72926038930428       -4.27565955792932        1.20899505070380
H           31.61263716297114       -2.40068992692142        0.74213945942755
C           19.70886252442722       -0.00671932407998       -0.09329136287095
C           18.48120360519535       -0.02189819691839       -0.09080354688587
C           17.13625494792857       -0.02673588915188       -0.08319421743036
C           15.91309548176355       -0.03446061234789       -0.06892271120463
C           21.05381715723986       -0.00014578673357       -0.08785784533450
C           22.27696991359509        0.01205533692138       -0.07631062513767
