132
 energy: -258.392254760482 gnorm: 0.000537695960 xtb: 6.5.1 (b24c23e)
C           14.03345467218507       -0.06176647019446        0.09816678747240
C           14.63688664279202       -1.26324362492288       -0.24878892897090
C           13.98626191432952       -2.50190556570214       -0.50980107495051
C           14.94318719010382       -3.41766689058495       -0.84436310826173
C           16.20878215069285       -2.76391114483587       -0.81126300554220
N           15.97481015320412       -1.47369607088806       -0.43035034917348
C           17.46404869527947       -3.30539857393891       -1.10915453006898
C           17.49281936164816       -4.72100357575825       -1.54716885585730
C           16.79203684339146       -5.12915470228470       -2.68514017514054
C           16.81863381911169       -6.45336965684451       -3.09085507058841
C           17.54893054253378       -7.36358682926562       -2.34414487872809
S           17.59492153733049       -9.03974462422343       -2.85528462200963
O           17.28664029725861       -9.15904357658234       -4.25013782944658
O           16.31666678900021       -9.57902613627321       -2.01043368826079
O           18.77145551081203       -9.68867713339335       -2.35674959713537
C           18.25705241316441       -6.98931407896665       -1.21352517879916
C           18.22608220516929       -5.66233199610081       -0.81908136837963
C           18.67989976464444       -2.62042590147105       -1.02194891599224
C           19.95110413087096       -3.17695718281029       -1.44819232395924
C           20.88419597911557       -2.23901630130279       -1.18468283090675
N           18.85896023771878       -1.36022995770959       -0.54136799253136
C           20.18450315769176       -1.11260040371469       -0.60038503627674
C           20.84530708165817        0.04402841507568       -0.13850899212889
C           20.21720715489996        1.20657248932935        0.34827615793901
C           20.86041837033326        2.36584717954063        0.85513452199680
C           19.89688152324672        3.28480424597858        1.16544479503690
C           18.63176401423918        2.71245457169432        0.85805555945324
N           18.87560723271637        1.45139654383430        0.38385089233912
C           17.37375937409312        3.30346940470070        1.02413031422740
C           17.35912089888440        4.71612097967350        1.47242298458779
C           17.96975789022352        5.70517017487681        0.69627958611710
C           17.95228916750620        7.02923478365567        1.10203771343578
C           17.32374194539436        7.35147789626574        2.29398119683388
S           17.28761444406818        9.02819597443185        2.80837083419091
O           17.45151162561044        9.91374428468479        1.69224906444389
O           18.67154304458586        9.06077261956082        3.65630828395129
O           16.19252093367519        9.24532451465185        3.70430704784173
C           16.71109284555767        6.39391248066024        3.08577123972125
C           16.73082363004854        5.07330632303141        2.66832798434039
C           16.14867027797849        2.66536119996795        0.80565743347129
C           14.85090960985161        3.30987184699581        0.94252654416675
C           13.92604651269897        2.36233314256500        0.69095585042366
C           14.65731999755358        1.14494636285550        0.38552711247300
N           15.99284920151026        1.36905958104928        0.44799239446653
H           12.94947773979790       -0.07648132532403        0.14660730655660
H           12.92190813131507       -2.65997374617073       -0.44119994818620
H           14.79192800849511       -4.45728105880480       -1.08550748954508
H           16.69693592969356       -0.77271332134143       -0.30299362891942
H           16.24019574264560       -4.39919379479607       -3.26586311984616
H           16.28810710391778       -6.77774632212739       -3.97727876850037
H           16.13757525073755      -10.50193728812694       -2.22793068723697
H           18.82277482255447       -7.72583683006091       -0.65690927175534
H           18.76333911801715       -5.35068807243419        0.06902506841774
H           20.08764311110995       -4.14323451429186       -1.90596298924679
H           21.94335667647875       -2.27598965217750       -1.37865499066079
H           21.92521640199287        2.47343067753364        0.97605495976030
H           20.04591126518539        4.26639877146041        1.58467529726354
H           18.15390867393814        0.79490728365993        0.10533224470181
H           18.44313502793302        5.43471319092319       -0.24046965970088
H           18.41077701668205        7.80458934646323        0.50111659677535
H           19.01725312324501        9.96101011480658        3.69507305826781
H           16.22570196937068        6.68137487456234        4.00992558296589
H           16.26806409670677        4.30747753484997        3.27967327564621
H           14.69400644082420        4.34838319418339        1.18545353797892
H           12.85100797737626        2.44966327266707        0.69464745766544
C           31.69504255178155       -0.00003963874307        0.11551865522529
C           31.09174163002942        1.20188283578319        0.46117839961415
C           31.74241701399167        2.38946595466639        0.89930547370166
C           30.78550890524964        3.34283696783712        1.10349380019975
C           29.51989250791287        2.77175776776249        0.78366813147005
N           29.75381248491738        1.47669040601595        0.41957670747466
C           28.26463743275032        3.38880616369496        0.81943762367665
C           28.23599665471638        4.82057343545518        1.20128276676453
C           28.93736687730264        5.77120376849637        0.45491306890796
C           28.91088546393531        7.10843028538534        0.81542902333592
C           28.18006907305897        7.48240883058369        1.93142843944597
S           28.13418651755015        9.17376083711932        2.38979808723151
O           28.44288169528511       10.01646675411586        1.27201760056650
O           29.41216813677448        9.18104140155452        3.39241022047260
O           26.95748592455373        9.45839328771669        3.15677097981842
C           27.47138180242547        6.56438835551469        2.68959376034693
C           27.50227575882506        5.23080168255598        2.31808581908784
C           27.04874924829286        2.76245909733697        0.52895853273051
C           25.77762693472598        3.46059186639975        0.46377227568057
C           24.84442828417342        2.52622750982520        0.18823576169036
N           26.86954939148298        1.43967246748208        0.26577314063275
C           25.54400285750766        1.26148679858754        0.08409286513791
C           24.88303579861239        0.03646408770918       -0.14005783714274
C           25.51100217764260       -1.20696465205411       -0.34623508182401
C           24.86769642083055       -2.45812822087119       -0.53412699218585
C           25.83117453838062       -3.40139956466638       -0.76023731540613
C           27.09635803422568       -2.75337479711248       -0.71567944218488
N           26.85259343021669       -1.43332183794633       -0.44611869342427
C           28.35434036792382       -3.34214978243189       -0.88955936639097
C           28.36903727537489       -4.77676424384857       -1.26160450212519
C           27.75833668504911       -5.20130585879590       -2.44494660262487
C           27.77580020820346       -6.53830377791406       -2.80581555887304
C           28.40454687688814       -7.44528595536171       -1.96813914354538
S           28.44033408588823       -9.13877307251929       -2.42431373202275
O           28.27416666961181       -9.29503580276304       -3.84019291330645
O           27.05764458793649       -9.61769653729315       -1.72155047616991
O           29.53651778175702       -9.79879142068263       -1.78254992143775
C           29.01733792545246       -7.05568416199063       -0.78833848937436
C           28.99753590329273       -5.71542310919579       -0.43914287032784
C           29.57946498486830       -2.68558666168692       -0.73533119069500
C           30.87713593403214       -3.30414443209842       -0.96282919776849
C           31.80211303324448       -2.36796464189138       -0.67220068763900
C           31.07099710318325       -1.17466580441424       -0.28288321228147
N           29.73542946280081       -1.39764477672030       -0.34875439779071
H           32.77903969420176       -0.01338429895928        0.16392627386204
H           32.80677935993456        2.48677038598102        1.04145130413505
H           30.93683738242143        4.35129654649069        1.45268994385018
H           29.03166500705726        0.81543117513722        0.15443514553197
H           29.48958572657963        5.46166865203474       -0.42477676399357
H           29.44188483612128        7.85436628645636        0.23746272894991
H           29.59132060873335       10.07827145095518        3.69904001422961
H           26.90527860836405        6.89230582322495        3.55233646231023
H           26.96458710061732        4.49475270836885        2.90427812818401
H           25.64122209550103        4.52238113019153        0.58980137663496
H           23.78527160776379        2.66074117144060        0.04362895733245
H           23.80287838843039       -2.61350354718867       -0.48928224295639
H           25.68201484535460       -4.45552937054612       -0.92775408531757
H           27.57434924975402       -0.72938331811683       -0.33234025934251
H           27.28487048300708       -4.47394423261882       -3.09417794134348
H           27.31726127047946       -6.87508878056041       -3.72712025411864
H           26.71246718859881      -10.40120912749249       -2.16698189576144
H           29.50284929543453       -7.79072877279709       -0.15882911416734
H           29.46035462990280       -5.39222766326356        0.48590953676764
H           31.03389958159448       -4.31276413315589       -1.30959365939266
H           32.87713168878793       -2.44387338987572       -0.71597242676725
C           22.25525675347599        0.04677106328948       -0.15541064071361
C           23.47309175267266        0.04330947828057       -0.15611687504035
