244
 energy: -481.621121150152 gnorm: 0.000856097275 xtb: 6.5.1 (b24c23e)
Fe          52.36685768301940        0.00251156861512       -0.08105179613839
C           48.97813449455503       -0.00804334072817       -0.18578061391197
C           49.62747245037066       -1.22474667874756       -0.21553003595874
C           48.94944399803039       -2.48522424805035       -0.25921700703953
C           49.90585476800607       -3.43599702402306       -0.37379255813786
C           51.16670694535709       -2.75213835820210       -0.41421644613310
N           50.98483306301322       -1.40345543423535       -0.27504184882318
C           52.38896497481139       -3.38404601450656       -0.61841847167300
C           52.39661648153186       -4.84486656501194       -0.86063142638763
C           53.06102305576392       -5.70368695450622        0.01968366827732
C           53.06706742682702       -7.06897451709830       -0.20199321270095
C           52.40863783825087       -7.57821905130984       -1.31740430414430
N           52.41395065911907       -9.01168324705570       -1.55655622672267
O           51.83464575896097       -9.41555615926439       -2.53160601986392
O           52.99700277587772       -9.70599550008074       -0.76462821276415
C           51.74493212086476       -6.73967295719886       -2.20811433497140
C           51.73922939882007       -5.37664056254157       -1.97395742870993
C           53.59998089325245       -2.70592893541823       -0.61764169248218
C           54.86363857312672       -3.32371813591431       -0.89149595854460
C           55.80853224987277       -2.36723577515612       -0.72765669472643
N           53.77269466330578       -1.37355134437768       -0.32973018366419
C           55.12054126437130       -1.16918208776412       -0.35981273039204
C           55.77674806093753        0.02237294811170       -0.03106744052836
C           55.09809013133275        1.20267588098693        0.29236193174391
C           55.76157018785449        2.40178874234547        0.69961626241900
C           54.79972114196798        3.34054546074090        0.86751945753002
C           53.55129193272995        2.71343914831661        0.54805108072030
N           53.74873540142364        1.38967697397632        0.23597847252185
C           52.33355187756779        3.37851342685732        0.51767874367693
C           52.31106665626921        4.83251243065802        0.79678064950848
C           51.59063427807529        5.32600842752486        1.88861161028564
C           51.56412503300135        6.68230918516287        2.15757979297551
C           52.25943897601913        7.55293212022442        1.32352271584386
N           52.23172100831096        8.97946822685477        1.59941749044534
O           51.59123370351189        9.35046013117273        2.54903200274419
O           52.84760742382017        9.70181683207578        0.85913810998684
C           52.98005789404092        7.08221074379038        0.22986066156644
C           53.00509238824519        5.72331556929532       -0.02709847142343
C           51.12931035066055        2.74179262320901        0.23450773050664
C           49.86907516756653        3.41954545714426        0.12684618720527
C           48.92958371284551        2.46720556929487       -0.07845283778719
C           49.61722216203767        1.21135381851302       -0.10218540956508
N           50.96637676901845        1.39592452314333        0.05390043501935
H           47.89475867257547       -0.01082384204687       -0.22355935055036
H           47.87935308272797       -2.60635322850637       -0.20644360577225
H           49.78187450463970       -4.50553299212917       -0.42307888853781
H           53.56066056478812       -5.29475290106878        0.89010215186548
H           53.57321409279392       -7.74402651069013        0.47757441706482
H           51.24368243366934       -7.16126856906878       -3.07106568176458
H           51.23532224269245       -4.71128944433296       -2.66520176154912
H           54.99978009626872       -4.35303525627396       -1.18041381115296
H           56.87643859482608       -2.45096392040994       -0.84736491466335
H           56.82566430801490        2.49694655390447        0.84328096626932
H           54.91526693997930        4.36414979948189        1.18431262833266
H           51.06207160212238        4.63589035697233        2.53576902706919
H           51.01360171339974        7.07422562549600        3.00432833902192
H           53.50913512043257        7.78176367083477       -0.40606594917043
H           53.55226089438683        5.34475361877702       -0.88253510030219
H           49.73465917318526        4.48686698456290        0.19378543399746
H           47.86486466551585        2.58400550620888       -0.20206980787870
Fe          84.89885692867908        0.07489548335165       -0.03070214503202
C           88.27983623425207        0.11799477365892       -0.14821215729130
C           87.63458589762651        1.24117057941171        0.32823110919101
C           88.30824954030730        2.40913188189141        0.81066445853299
C           87.35258402867863        3.33834944277412        1.04842226977462
C           86.09679020477309        2.74111103102080        0.69424040550665
N           86.27901295016088        1.44111469519506        0.31008749641602
C           84.88361885757779        3.42246516447446        0.65876745559097
C           84.87456306151201        4.87081862487985        0.96113791550932
C           84.11329359780544        5.36203056195246        2.02610952040723
C           84.10661197844200        6.71328328947736        2.32053544109410
C           84.86246944146380        7.58181354069612        1.53861435798210
N           84.85922931313382        9.00260545833392        1.84399782819635
O           85.53279628745982        9.72215049330288        1.15281112574092
O           84.18343565066952        9.37140499374461        2.76955638619529
C           85.62201723615939        7.11406710275168        0.47027267008518
C           85.62696862972471        5.76018030638612        0.18798189730687
C           83.68152285263760        2.80214610930495        0.34391462776279
C           82.43063984697184        3.48705964860011        0.20650919279308
C           81.48379480964525        2.53539311192670        0.02147330760329
N           83.50133451243045        1.44943574730185        0.18695252135512
C           82.15624752245849        1.27457179932089        0.04673047983232
C           81.49429883365640        0.03936363746232        0.04457573850666
C           82.18073235860582       -1.18247715186905        0.02716403482194
C           81.53655503148971       -2.45609801470658        0.10010924600229
C           82.49629879255970       -3.39139215495647       -0.10179217450782
C           83.72514919618065       -2.68322662431490       -0.30537880947406
N           83.52249531853255       -1.33172362405039       -0.16302038614505
C           84.92233418314777       -3.28113486867816       -0.67680958820625
C           84.93342079443288       -4.73373991925445       -0.95736278878331
C           85.76030535287163       -5.58966112833528       -0.22341757653622
C           85.77761063752217       -6.94710043118124       -0.48753268970311
C           84.96488573653406       -7.45229714733523       -1.49815586969832
N           84.98512096781225       -8.87671378434350       -1.78534929012445
O           85.72397673584622       -9.56612055927266       -1.13108835803207
O           84.26266625663614       -9.27834456787292       -2.66060626131547
C           84.13448319637953       -6.61756342095340       -2.24023005305173
C           84.12019849337538       -5.26245204455284       -1.96444213676316
C           86.11295555192731       -2.57048639720685       -0.80157027456050
C           87.35544540058729       -3.13955992942233       -1.23921984490641
C           88.29946291407317       -2.18076098856340       -1.08819601447023
C           87.63143517712265       -1.02456268209007       -0.57079314694625
N           86.28689056315717       -1.26080114212821       -0.44878490480851
H           89.36296703426285        0.13264423470941       -0.18895737621826
H           89.37537492447818        2.48959355423372        0.94232052555193
H           87.47483054694425        4.33912388533385        1.42958365462322
H           83.53902530438918        4.67316744086534        2.63455147462275
H           83.52640526234610        7.10274894764216        3.14839274158976
H           86.19731698402579        7.81200648120305       -0.12603335168956
H           86.20466003546812        5.38466523295833       -0.64847989418783
H           82.30376037422674        4.55686324676178        0.23904917084341
H           80.42370255029313        2.66376240619276       -0.12237503924178
H           80.48572544268441       -2.60332459570616        0.28811736637641
H           82.39169141071456       -4.46407107385259       -0.10713703143440
H           86.37982749686792       -5.18525901928703        0.56845611749367
H           86.41118938206840       -7.61919840011457        0.07861132945688
H           83.51403178535082       -7.03568696808525       -3.02373464767873
H           83.48843825005477       -4.59949527486629       -2.54399915730942
H           87.47707368750646       -4.14259741036952       -1.61459197631539
H           89.35555967119583       -2.23429048711434       -1.29882896315643
C           57.18123849333106        0.03078863184490       -0.01821573424638
C           58.39959103069378        0.03343254230565       -0.01122958491458
C           68.03349089578566        0.01207273358076        0.01179633297754
C           69.25320762059313        0.00786715369271        0.01326939248427
C           78.87186501204570        0.01560997505030        0.06934407689384
C           80.09127055154131        0.02539439689920        0.06048263983718
Fe          63.21741032145872        0.02398675265172       -0.01611658793849
C           59.80327786657890        0.03277651528232       -0.00827412729932
C           60.47189653838576       -1.17894875223840        0.20531545542970
C           59.80173262795945       -2.41031344467526        0.48181817101204
C           60.75455750712918       -3.37394270944690        0.50680992460592
C           62.00219004473878       -2.72451045041725        0.23763943593371
N           61.81781174445273       -1.37124622901135        0.10289151386284
C           63.20930431922318       -3.39352796917184        0.06895074582109
C           63.20414085553007       -4.87356618793100        0.10580727344105
C           63.93826621458116       -5.55623903856290        1.07998123919014
C           63.93181747074449       -6.93872650599400        1.12293991332058
C           63.19041244284301       -7.64313095803883        0.17925241252191
N           63.18186795885545       -9.09684695690336        0.21910075277750
O           62.52123203820803       -9.67157474999681       -0.60632619943579
O           63.83660282704951       -9.63305608130917        1.07481332690125
C           62.45641730623699       -6.98243481394488       -0.80117342950721
C           62.46366311357649       -5.59959491003466       -0.83152797233935
C           64.41931980108976       -2.74077172111784       -0.12809149968047
C           65.66545987000403       -3.40838068807170       -0.35823328634175
C           66.62347389994920       -2.44980800690065       -0.36843857549784
N           64.61143035449923       -1.38263968812802       -0.05493367999053
C           65.95809017209747       -1.20340202182746       -0.15404160631902
C           66.63232775739394        0.01544095398773        0.00329899206410
C           65.96183914819385        1.23798391820640        0.14602115994610
C           66.63084869630862        2.48353057519606        0.35413604811767
C           65.67891289288615        3.44732154640618        0.31265182458447
C           64.43228329100577        2.78321650727362        0.07499099780641
N           64.61759435043874        1.42340782871463        0.02439031018271
C           63.22731007092703        3.44028759236784       -0.14013833474936
C           63.23610177318891        4.91910172533937       -0.20895189065055
C           63.98330878325139        5.57055856207983       -1.19467205124825
C           63.99281463112100        6.95151381881022       -1.27044747849347
C           63.25439264088222        7.68629630550958       -0.34779628230020
N           63.26286324573080        9.13862083869300       -0.42191082909567
O           63.92129261056049        9.64672735573698       -1.29180562349018
O           62.61104024011414        9.74048741472035        0.39112307866960
C           62.50805082308354        7.05713612790746        0.64394602808051
C           62.49938872443357        5.67534155681094        0.70711915976653
C           62.01544304797905        2.77667384701863       -0.29469045192083
C           60.76906346282709        3.43000676975095       -0.56099807037705
C           59.81045931597438        2.47304956578626       -0.51199256238502
C           60.47620583554092        1.24089087154822       -0.22833826276091
N           61.82399425194091        1.42628567141331       -0.14025855516938
H           58.74024344073538       -2.51113626492900        0.63906086512505
H           60.63266690414760       -4.42788312604282        0.69586376007019
H           64.50210222108581       -4.99460049602238        1.81557352748622
H           64.49137966513777       -7.47773739956589        1.87794790462404
H           61.89093924851183       -7.55513757938982       -1.52639050872081
H           61.90464016492378       -5.07209048368218       -1.59550389707027
H           65.78266481131071       -4.47044247522047       -0.49869243925747
H           67.68548490620742       -2.56340755347635       -0.51268394572228
H           67.69109407257109        2.59321719564658        0.51365675153123
H           65.80014327181784        4.51077267919650        0.43847281683389
H           64.54511645459132        4.98526200290582       -1.91318849096011
H           64.56290055403899        7.46613171352302       -2.03453235259657
H           61.94552976673883        7.65317967244767        1.35246524347776
H           61.93132969330765        5.17273201099561        1.48112659206467
H           60.65145068667508        4.48198962229389       -0.76318041294785
H           58.74764509385230        2.57847781405265       -0.65735078308813
Fe          74.06111251413490        0.00637439747483        0.01910892848321
C           70.65402674784681        0.00631254165698        0.01203580352657
C           71.32880683275988       -1.19506600733419        0.27186316311312
C           70.67240383839236       -2.42115710325744        0.60023581101702
C           71.62852606049748       -3.38246331451371        0.61507644208418
C           72.86496538603231       -2.73745146354532        0.28839501918178
N           72.67115311681574       -1.38628005573180        0.13973096217479
C           74.06397075513098       -3.40144532991831        0.05652756053572
C           74.06813929103635       -4.88058539989991        0.07980900178623
C           74.88423444987512       -5.56769710207134        0.98353420645974
C           74.88715054385989       -6.95033019293306        1.01609318205382
C           74.07176648528792       -7.65133349780690        0.13279322742435
N           74.07215059756483       -9.10523459623111        0.16216261863918
O           73.33941592544819       -9.67668930109873       -0.60241626172046
O           74.80455980782986       -9.64493248403293        0.94980336316467
C           73.25553083092866       -6.98667127874209       -0.77739686839314
C           73.25489860109508       -5.60370496191712       -0.79787852815026
C           75.26166625323043       -2.73797993905738       -0.18974140307554
C           76.49891891067507       -3.38709422595405       -0.50286498420168
C           77.45426392200670       -2.42462504150534       -0.50032942454653
N           75.45344822187779       -1.38480691754364       -0.06409292153049
C           76.79733761695249       -1.19427462309710       -0.19195903760904
C           77.46955221922316        0.00951299655657        0.06418853009447
C           76.78690694638432        1.21145956585534        0.30062869470149
C           77.43178714960467        2.44624368116428        0.61638389899673
C           76.47748387553331        3.40858821179792        0.56732254506590
C           75.25246412834527        2.75395530035459        0.22025415670507
N           75.44792657161365        1.39933414201129        0.12410305687436
C           74.06317781506404        3.41308941863353       -0.07543267447386
C           74.07694050076145        4.89056766854921       -0.14526532800384
C           74.92247760596206        5.53964871095205       -1.05030024275392
C           74.93662609529237        6.92003382593070       -1.13250499457703
C           74.10330270279172        7.65759702322866       -0.29697130597336
N           74.11483065679639        9.10943482366482       -0.37910074802187
O           74.86173457566719        9.61491865100695       -1.17596968648305
O           73.37544568264185        9.71343630963733        0.35345859914072
C           73.25925692419317        7.03141293883030        0.61515083929475
C           73.24744403837242        5.65001246965035        0.68512148554203
C           72.86748412027590        2.74501167240078       -0.31033386844740
C           71.63266001146097        3.38330479157571       -0.65598497798439
C           70.67437188802037        2.42497643620895       -0.61353321420402
C           71.32916614632130        1.20560608342254       -0.25806269674560
N           72.67136044709436        1.39742279034910       -0.13053126469215
H           69.61688872101351       -2.52124758843640        0.79404964359297
H           71.51527091641162       -4.43211296735293        0.83170047853848
H           75.50470597594982       -5.00917707135159        1.67454706754038
H           75.51020422472222       -7.49217316034208        1.71742356277125
H           72.63367061589891       -7.55663234423392       -1.45718437824201
H           72.63297938188938       -5.07365833308882       -1.50971551001002
H           76.61325233272308       -4.43990957055313       -0.70294810817250
H           78.50994230553083       -2.52736408897339       -0.69028999517959
H           78.47900538372780        2.55157328101092        0.84689872907714
H           76.58393181310471        4.46443778945272        0.75546020427787
H           75.55746758564334        4.95238527715934       -1.70329068924311
H           75.58234448674541        7.43215779724881       -1.83567734727237
H           72.62449780911312        7.62957748861021        1.25777453044684
H           72.60415069301089        5.15035890761166        1.39992128037341
H           71.52122548392458        4.42696857174622       -0.90058668483762
H           69.61892049808783        2.52221642918080       -0.80911630003086
