340
 energy: -542.965506174802 gnorm: 0.000640692602 xtb: 6.5.1 (b24c23e)
C           75.47174100905033        0.31013417282470       -0.02528794568393
C           76.06936154608066        0.47202384308606       -1.26881386290764
C           75.40528570038298        0.60744276632187       -2.51950194798812
C           76.35885668987919        0.71698706150077       -3.49286241782411
C           77.63638929407468        0.66636702797113       -2.86648827990880
N           77.41044671773821        0.51018885389638       -1.52775045749559
C           78.89440594374145        0.74622194778064       -3.47617296284357
C           78.91347444097771        0.95134231609174       -4.94278065711326
C           79.55147557329039        0.03311653160867       -5.77929736375773
C           79.56127942869676        0.20123812348880       -7.15329989462156
C           78.92815302187239        1.30616100421131       -7.72967982646100
N           78.95131416970275        1.55199547871789       -9.09482139551354
C           79.13260602499143        0.44395875953427      -10.02308154341875
C           78.30181544944425        2.23932918816097       -6.89439027517636
C           78.29033012137693        2.05938519164654       -5.52408528313857
C           80.11622838802988        0.64450286383017       -2.80390930877874
C           81.40371279757481        0.85393554411343       -3.43990271075968
C           82.33647715278775        0.68373348563258       -2.47975332665674
N           80.28864128768629        0.36958520309978       -1.48153033349415
C           81.62002124616042        0.36959124104300       -1.26018335412838
C           82.27205084507358        0.11139249102897       -0.03696819997556
C           81.64259499096735       -0.13598371735138        1.19897262920781
C           82.29187356481326       -0.39308481803022        2.43403308103330
C           81.33217120162256       -0.52777327950889        3.39901976286301
C           80.06264210967952       -0.37218668682540        2.77886502926580
N           80.30189979691060       -0.14106630832885        1.44924078556098
C           78.80886842489915       -0.39836373390481        3.40146538486661
C           78.79327714883593       -0.64852543107150        4.86186050953636
C           78.25805245141238        0.29629371323559        5.73931190105553
C           78.24880563938756        0.08000830598278        7.10677264920027
C           78.77831572865628       -1.10124077165413        7.63408977902142
N           78.74568269053842       -1.39417549951835        8.98986151711513
C           78.68541349537290       -0.30914177758113        9.96003873760149
C           79.30267738649499       -2.05869021068854        6.75722401929638
C           79.31479834248259       -1.83099778001450        5.39393953507084
C           77.58792126830646       -0.20459978255735        2.74665103919290
C           76.28961495473416       -0.30040926599725        3.39544578731316
C           75.36556973750491       -0.09707817108391        2.43458743084341
C           76.09761812521555        0.11233976117035        1.19844504466947
N           77.43262383936099        0.04325207832676        1.42436475988070
H           74.38634990348329        0.32006454350031       -0.02260959409500
H           74.33433871980351        0.60868046589817       -2.64657720764361
H           76.19547852306627        0.81133384703305       -4.55419470845206
H           78.14164898039006        0.42035860363044       -0.83032389803111
H           80.02974110849952       -0.83850082149791       -5.34578264680711
H           80.06305361531588       -0.53251224524381       -7.77214140859438
H           78.21831506047461        2.18559966691950       -9.39035830316689
H           78.41964628166333       -0.36562470677041       -9.82894695931587
H           78.98075235535455        0.82307070629869      -11.03370736811866
H           80.14825300378817        0.05375757204608       -9.94592510378688
H           77.82348949849757        3.10965151513340       -7.33137903464020
H           77.81154970090338        2.79791317453063       -4.89022399200255
H           81.55259026575547        1.12170193208120       -4.47342569625556
H           83.40712408594098        0.77403971419412       -2.56331709276306
H           83.35898422422898       -0.46489429234509        2.56271370601690
H           81.48949805401978       -0.70733607357960        4.44999899496139
H           79.57689567849852        0.01855391120973        0.75744376354911
H           77.86146511771251        1.22526716968424        5.34415523273769
H           77.82805535614813        0.83560600016526        7.75883812001938
H           79.41529026490606       -2.10778288518852        9.25152163221207
H           77.71323330222975        0.18295495785856        9.91101404016461
H           79.47390557060426        0.43209865645989        9.78576606564517
H           78.80858683391476       -0.73909840310885       10.95408870644249
H           79.70077323498734       -2.98593646116615        7.15589591348093
H           79.71418022826732       -2.58734923123961        4.72701900246168
H           76.13037361587237       -0.51433899532544        4.44012695984619
H           74.29011392144035       -0.09520400153049        2.52127005698349
C          125.92988925998591        0.35171242296888       -0.30002499626359
C          125.36789737736358        0.56181354544179        0.95290756202102
C          126.06717036864771        0.76300991121423        2.17519818398842
C          125.14172764336344        0.90270753828679        3.17166388547173
C          123.84694878168553        0.80648629418184        2.58764674495451
N          124.03483867898157        0.59249908441487        1.25106183332869
C          122.60635502183342        0.90060459208689        3.23020697562935
C          122.62652353680168        1.17441468585434        4.68540733210594
C          122.01965048409161        0.29169573825586        5.58138981409421
C          122.04686535269187        0.52343963263408        6.94578018260648
C          122.68674159144125        1.65838375247975        7.45223796497575
N          122.70068446049392        1.96634267558664        8.80479664734804
C          122.55658559928365        0.90010201694942        9.78706642366932
C          123.28087734531240        2.55653197639709        6.55717458474091
C          123.25564293441441        2.31311136544910        5.19689243118648
C          121.36702635209217        0.75431167536924        2.59955203032375
C          120.09687229179116        0.98715667562574        3.26144547762462
C          119.13841941084848        0.75863427837702        2.33962920579230
N          121.15872063163351        0.40854619376129        1.29896425670788
C          119.82141341058187        0.38467828231264        1.11800701014798
C          119.13612963136559        0.05102524729131       -0.06843702974542
C          119.73256026841628       -0.25271154891448       -1.30835628086077
C          119.05095078846652       -0.58316058226427       -2.50807309282153
C          119.98357866863550       -0.75224525788718       -3.49398556137364
C          121.26836564954893       -0.54548691046265       -2.92191281222720
N          121.06499983588955       -0.24991340418782       -1.59907595075845
C          122.50318476163312       -0.58437424885354       -3.58077278507574
C          122.47826428601471       -0.91289469125316       -5.02533960977041
C          122.97160475048044       -0.01065059595082       -5.96958076269343
C          122.93999210896148       -0.30101226420928       -7.32295232681033
C          122.41030059845761       -1.51550006460009       -7.76809391842636
N          122.40189852261369       -1.88096216914961       -9.10665661067352
C          122.41060591484113       -0.84869868191301      -10.13462992207084
C          121.92898999660393       -2.43072531454355       -6.82403617500427
C          121.95762409357653       -2.12939881160490       -5.47544103702330
C          123.73984875807757       -0.33637411915030       -2.97539472402204
C          125.01939834531389       -0.44379444946600       -3.65860527327426
C          125.96829962671933       -0.17524052765287       -2.73883555024874
C          125.27045148919305        0.08454869545308       -1.49255212182991
N          123.93063191842310       -0.01810875066050       -1.67295210469381
H          127.01434722202771        0.37895374795653       -0.33729378147195
H          127.14130571915706        0.78497811735091        2.26917955807315
H          125.33552655116581        1.04664004321842        4.22225579338687
H          123.28425841070234        0.46085197312343        0.58140554726953
H          121.53672309696135       -0.60246230932248        5.20237295898712
H          121.56852949540783       -0.18402507433334        7.61195806680928
H          123.43628523467777        2.61835698060457        9.04944878660467
H          123.26837067682638        0.08644732726072        9.60614745779228
H          122.73832571027413        1.32484613764932       10.77432444740434
H          121.54163290041788        0.50153426921804        9.76024214102655
H          123.76325047794548        3.44998244569550        6.93965075706090
H          123.70954152116109        3.02522377089390        4.51622519117306
H          119.97569874532923        1.30944563482543        4.28292230975530
H          118.07022355877706        0.84674443489443        2.44949374647699
H          117.98176599853147       -0.67749041042930       -2.60029434509454
H          119.79768884070189       -0.98710071514207       -4.52926596768934
H          121.80764720618839       -0.04355037373311       -0.93907172072494
H          123.36690741182396        0.94360484348791       -5.63859662511032
H          123.32866391947530        0.42321335849110       -8.02834817270671
H          121.73362730815751       -2.61580126553976       -9.30577154489838
H          123.37485417047286       -0.33903203528381      -10.14485760202854
H          121.61504790501773       -0.11212730416328       -9.97325332419598
H          122.26242765526786       -1.33341894879706      -11.09965079752289
H          121.53162429575292       -3.38322942263463       -7.15875701743580
H          121.59107343452310       -2.85335333669484       -4.75579047486755
H          125.15095187303051       -0.70892384880040       -4.69536944659936
H          127.04042018968016       -0.15974101754707       -2.85899308294358
C           83.68138648755092        0.10973696515837       -0.03115426161598
C           84.89952918960654        0.10675655936125       -0.02395130051046
C           94.62007776076410       -0.08060249006262        0.08882859684877
C           95.83950698067595       -0.09162030408667        0.09727409591655
C          105.57214823238102       -0.11675336113175        0.12857219175824
C          106.79143521034446       -0.11453342147146        0.12400478546925
C          116.50974453739559        0.00088400530111       -0.00567881515495
C          117.72754360672180        0.02525370304839       -0.03214866134308
C           86.30761338630653        0.10257325771490       -0.01169413991038
C           86.92922411899185        0.23923942170721        1.24517866334853
C           86.28127075863189        0.39702035632190        2.49601258988273
C           87.24118220410702        0.40959020386743        3.47117930149588
C           88.50738472435225        0.27502372545523        2.84117406247728
N           88.26887842668039        0.18647129092876        1.49539951411945
C           89.75430715419483        0.17368587082132        3.47158197254426
C           89.74528645830415        0.24103799265914        4.95428019127805
C           90.17275608563996       -0.84604401862903        5.72077179050851
C           90.15358408569676       -0.78793037995368        7.10173033632396
C           89.70949787681135        0.36553169184840        7.75918787348074
N           89.76192545289216        0.39801144047020        9.14622161954039
C           88.87943250782848        1.29845555313036        9.87643821108271
C           89.29473016380345        1.46094352247688        6.99690436023668
C           89.30708034354292        1.39011516501379        5.61389877890716
C           90.98272595837362        0.01626953085285        2.82816923665796
C           92.25068883338682       -0.05955251284110        3.52935471721301
C           93.20683965807203       -0.13732257181771        2.58091835609221
N           91.19186441381930       -0.01682900359815        1.48178593450618
C           92.52711708109959       -0.09326234321842        1.30363823296888
C           93.21270676300037       -0.07136151127842        0.07049969511190
C           92.59300631387605       -0.02110925355045       -1.19540664379470
C           93.23924057165800        0.09315591556123       -2.45127028524250
C           92.27778423364109        0.07575721770111       -3.42536487448856
C           91.01366242744696       -0.05386511537074       -2.79088508982823
N           91.25340371219110       -0.08956993859072       -1.44266551570922
C           89.76153396244311       -0.13530862176900       -3.41618772027056
C           89.76615610965635       -0.19526418172786       -4.89598911763799
C           89.07888836897060        0.75815769242314       -5.65042504673246
C           89.07826970804584        0.71297043915810       -7.03379372011501
C           89.75749516582921       -0.30924777508469       -7.70308400527223
N           89.82631762405661       -0.37770374453758       -9.08685545094543
C           88.77593844937348        0.23330852109732       -9.89064740021887
C           90.45210741534758       -1.26541988742905       -6.95197769301476
C           90.45855158171561       -1.20479675562998       -5.57137751083333
C           88.52736372271053       -0.16188409522443       -2.76254739902678
C           87.26002337292917       -0.35996857904485       -3.44177278569470
C           86.30248177065843       -0.29063750395017       -2.49319008564323
C           86.98477766828829       -0.05536023452603       -1.23792194389796
N           88.32011473981305       -0.00597140929467       -1.42584270934779
H           85.21613211085140        0.48761718339850        2.62908301427178
H           87.08445392699487        0.49340475096546        4.53414827861710
H           88.98770160391396        0.07846001233029        0.78757124863545
H           90.50291424913181       -1.75241687906319        5.22522684765126
H           90.48201395860453       -1.64171651010149        7.68514937903278
H           89.78627354538104       -0.52868348269063        9.55503734006757
H           87.83375290180926        1.17228125018495        9.57291002317004
H           88.97562712035808        1.07564353941227       10.93912158556515
H           89.17925808353883        2.33358311159648        9.70887180001660
H           88.96450137137388        2.37413346470982        7.47671459027213
H           88.99141381159997        2.25047321372958        5.03363251166932
H           92.37534126208773       -0.03999996715749        4.59980687565292
H           94.27307870652039       -0.21432496589708        2.71156011301781
H           94.30287656987167        0.19245157454865       -2.58803127958437
H           92.43026773195800        0.16340274252810       -4.48863250541330
H           90.53470862601600       -0.14935698323558       -0.72926890296193
H           88.55557916721247        1.56131258264349       -5.14309467284093
H           88.54952087556204        1.47874524040138       -7.58798574806838
H           90.07798870345100       -1.30061723940071       -9.42007535126176
H           88.83230135517854        1.32006391740530       -9.81623114552725
H           88.93713573349524       -0.05371183155404      -10.92978464841828
H           87.78084229551250       -0.09864904336898       -9.57308905558289
H           90.98519355039195       -2.06052134429637       -7.46274833851803
H           90.98448551724208       -1.96470870508837       -5.00359681425988
H           87.14014104924500       -0.55045743499570       -4.49601763453667
H           85.23678904459160       -0.40369862612680       -2.60747083686715
C           97.24676749274940       -0.09051283933299        0.10597362721024
C           97.88045441494496        0.05056938995386        1.35741427533922
C           97.24564662332109        0.18114191850087        2.61755751316393
C           98.21646896751403        0.20408306189032        3.58124490013392
C           99.47741769012863        0.10257427907312        2.93499239364132
N           99.22410901827828        0.02107845935813        1.59115975731626
C          100.73205851419182        0.02267035926566        3.55331286673454
C          100.73489131599771        0.08592821259068        5.03627035094631
C          101.19092079995202       -0.99324870873358        5.79754213919585
C          101.18398470085397       -0.93651272442145        7.17863010489509
C          100.72396039083300        0.20763694620381        7.84166899617898
N          100.78940638460776        0.23991529306325        9.22785921863048
C           99.90312366041803        1.12849002501116        9.96799904446812
C          100.28047385689652        1.29526496811903        7.08441919909680
C          100.28068869581477        1.22563138010473        5.70134395925467
C          101.95823727160000       -0.10758677305812        2.89966119206585
C          103.23319682564632       -0.16815640609166        3.58992807311912
C          104.18281722916473       -0.22304932643771        2.63329636781604
N          102.15670289632608       -0.12533433213186        1.55164959651422
C          103.49156058611990       -0.17732994620456        1.36229303669631
C          104.16510986421395       -0.12602924170985        0.12389466167018
C          103.53265470647968       -0.06106170170449       -1.13499626359611
C          104.16295676133267        0.10110224480242       -2.39353216880508
C          103.19129595144935        0.08839620332746       -3.35790411087630
C          101.93768797553629       -0.08915971960619       -2.71444582234780
N          102.19257734036439       -0.15398782516731       -1.37018723576603
C          100.68127255723665       -0.19444694218535       -3.32750463249122
C          100.66874058398314       -0.21425940427011       -4.80824652170661
C           99.93715805073107        0.73459668922304       -5.52597020701676
C           99.92051813932065        0.73019040274826       -6.90998479334651
C          100.62782953398977       -0.24630047147401       -7.61727674788469
N          100.68115538399775       -0.27225075424988       -9.00320268319591
C           99.60176452734903        0.32763582387436       -9.77626446018318
C          101.36632991741716       -1.19794124436574       -6.90307721273501
C          101.38855158888938       -1.17753227185949       -5.52149686288983
C           99.45623269110823       -0.27863014933517       -2.66173751097430
C           98.19250051445515       -0.51927713389023       -3.33268772007212
C           97.24080765627131       -0.49248636590278       -2.37579209338592
C           97.92215904328371       -0.23768007175366       -1.12465252832488
N           99.25338797648695       -0.14243042062701       -1.32159502805360
H           96.18111318935499        0.24300800369724        2.76560940196356
H           98.07057373706557        0.27231666692699        4.64680284200826
H           99.93572651325559       -0.06368284952673        0.87294518519231
H          101.53366090817811       -1.89275892819999        5.29804344034908
H          101.53464596711042       -1.78412101238996        7.75810108730413
H          100.83148924169549       -0.68621935724859        9.63639223397448
H           98.85585798570260        0.98790125014322        9.67667134886289
H          100.01477190111635        0.90749960693337       11.02953972420358
H          100.18690011668043        2.16754399369235        9.79661011877173
H           99.93690797174398        2.20148627305052        7.56800336625535
H           99.94231636276639        2.08000430742203        5.12505102113639
H          103.36635144108895       -0.15525902703233        4.65944316832687
H          105.25143207021037       -0.28379370228747        2.75427782187539
H          105.22256484522445        0.22926555170568       -2.53841219695455
H          103.33049154478381        0.20925595113668       -4.41973460930944
H          101.48352978924648       -0.24866272549874       -0.65096414228040
H           99.39091878656451        1.50240041422787       -4.98890787363869
H           99.35722466863525        1.49206422664323       -7.43474714114222
H          100.95802948092101       -1.17647512136766       -9.36627220711295
H           99.62355715575438        1.41289765360889       -9.66924282842748
H           99.75971532562757        0.07763773933568      -10.82541658894810
H           98.62189470581423       -0.04640474536261       -9.45810279090797
H          101.92129963842086       -1.95762643390070       -7.44356157742692
H          101.94888011532393       -1.93397791692556       -4.98277099427314
H           98.07190813537795       -0.70856960133909       -4.38710308731659
H           96.18015560873857       -0.64952863937828       -2.48208710167383
C          108.19838034686795       -0.09809783904719        0.11206246478171
C          108.84904236172723        0.06350475409563        1.35190208521916
C          108.23076293730905        0.19843101516662        2.62013646771775
C          109.21478368627027        0.23336365158936        3.56994224860362
C          110.46752986795741        0.13677355894836        2.90675615681639
N          110.19597409049692        0.04631102919778        1.56698161533323
C          111.73203310415950        0.06878097507833        3.50598024885192
C          111.75837453360751        0.12731780756508        4.98873688152783
C          112.23667741237115       -0.95115877484231        5.73723285747373
C          112.25015424918193       -0.90161267522593        7.11852413730123
C          111.78949881557705        0.23477259449385        7.79432372469624
N          111.87442211197309        0.26053078724727        9.17947967236955
C          110.98897342182876        1.13560067311193        9.93651291143576
C          111.32513838631080        1.32239335429307        7.04956056908701
C          111.30447844185684        1.25971182411816        5.66634292751662
C          112.94885543544693       -0.04604130646866        2.83169966567486
C          114.23734792942074       -0.08619592733106        3.49903561216010
C          115.17092750038930       -0.12399817526112        2.52597624700321
N          113.12270735129454       -0.06118382830758        1.48099579971076
C          114.45505099304764       -0.09064413027887        1.26749715835524
C          115.10232216731102       -0.03605518451085        0.01675708335800
C          114.44932408558030       -0.00039683221737       -1.23209400461939
C          115.05817367682290        0.15598020243759       -2.50207422470104
C          114.07387339409141        0.10495669253716       -3.45235336745930
C          112.83379806687215       -0.08915512350499       -2.78803460380375
N          113.10847628641976       -0.12562156209826       -1.44679416325722
C          111.57084937508321       -0.23075375345228       -3.38024879307241
C          111.53788632558013       -0.28791327371028       -4.85929244635950
C          110.77403002087347        0.62406373227416       -5.59118017408747
C          110.73893106169989        0.58261896744117       -6.97416765943474
C          111.46070704061199       -0.39452404660346       -7.66587310131819
N          111.49646466834562       -0.45498354946890       -9.05138214055665
C          110.38710184408441        0.08856251165197       -9.82383269281577
C          112.23200365692132       -1.30871410502045       -6.93770796945565
C          112.27168731683940       -1.25169880324461       -5.55753489718629
C          110.35875442978650       -0.31789713264661       -2.69189249097296
C          109.08604341445344       -0.58879781530647       -3.33363541669199
C          108.15161217522957       -0.54988396023433       -2.36023115142580
C          108.85321845951013       -0.25969866851806       -1.12781665551504
N          110.17910082763774       -0.15422448924661       -1.35145873466652
H          107.16774345136453        0.25450621356103        2.78214655361841
H          109.08334955315331        0.30726259150323        4.63701950166038
H          110.89881464216526       -0.03860398744085        0.84023538089581
H          112.58049020788710       -1.84470004378319        5.22782909134890
H          112.61738900368928       -1.74889564261642        7.68811945025649
H          111.93264595147016       -0.66715140204504        9.58246440520796
H          109.93970779524265        0.98746140753203        9.65636217964705
H          111.11507057523842        0.90800589701098       10.99504313643754
H          111.26123895062295        2.17842802773567        9.76937547322690
H          110.98157854813579        2.22320135828885        7.54315877821302
H          110.95007407599846        2.11393851104971        5.09955820864725
H          114.38847228016245       -0.07198292484247        4.56615141122356
H          116.24268066727194       -0.16811578732865        2.62752730744364
H          116.11252000016009        0.30702958227017       -2.66381179838980
H          114.19536265768943        0.21152792094394       -4.51790775257415
H          112.41120123439762       -0.22313567100265       -0.71653012380356
H          110.21710138497392        1.39290084803526       -5.06676094662063
H          110.15022745629572        1.31655597494842       -7.51070473215186
H          111.79638013339697       -1.35977590594729       -9.39437076779071
H          110.37057042220766        1.17592683631316       -9.74054532547123
H          110.54194018709092       -0.17859632481869      -10.86920354207443
H          109.42534125634867       -0.31370640093565       -9.48544476872681
H          112.79856927105337       -2.06852764903164       -7.46586265976479
H          112.85746656720799       -1.98011185436424       -5.00731753945715
H          108.94862865935576       -0.80420854033302       -4.38096313767902
H          107.09095789993863       -0.72123525380591       -2.44312751434733
