122
 energy: -221.677077239329 gnorm: 0.000488224575 xtb: 6.5.1 (b24c23e)
Cu          14.27589361805266       -0.04578843949967       -0.00070337730118
C           10.87139370808153       -0.08014524512969       -0.09454459858198
C           11.50535556074280       -1.31121730073273       -0.01837684168529
C           10.82883761845283       -2.57354388394850        0.06595329944241
C           11.78666232635050       -3.52971686406561        0.15423892722376
C           13.05833164598464       -2.86029423458675        0.11283438356296
N           12.85576500822783       -1.51373226881501        0.01489440692135
C           14.30214408225385       -3.49234975775803        0.18943488903816
C           14.31390067657721       -4.97413494730528        0.27874933167509
C           13.78991915103950       -5.75119611987384       -0.75449121658178
C           13.80151023544363       -7.13536444039944       -0.67612567449235
C           14.33546681533639       -7.75925933544730        0.44884465860760
O           14.36370476074882       -9.11202288491902        0.56828481544828
C           14.85899835446432       -6.99472846607060        1.48971709227035
C           14.84923481870148       -5.61406420666179        1.39908336716818
C           15.53496635089627       -2.83683514947507        0.18684789081147
C           16.81249160577750       -3.49115895630591        0.20837118163660
C           17.75903297452387       -2.51903486518304        0.17487860192123
N           15.72451305642703       -1.48103208131498        0.12950168139721
C           17.06812989296818       -1.26576285412525        0.12589314988289
C           17.70506824987405       -0.01339674411476        0.06647717340550
C           17.04731732990131        1.22730892259781       -0.00719582977050
C           17.71674419556051        2.48998042826701       -0.09412379205769
C           16.75378043946409        3.44440627635285       -0.15759041749380
C           15.48757252983943        2.77043377562366       -0.10235452497849
N           15.70017578015611        1.41941145499396       -0.01975146977331
C           14.24331988058712        3.40228368758054       -0.15450181986768
C           14.22865755679765        4.88553462530511       -0.20836633475987
C           14.76982620715033        5.63879299242709        0.83636305339201
C           14.75235346963915        7.02175024490506        0.79671872693822
C           14.19432991436467        7.67452369718396       -0.30085949543071
O           14.19470979070575        9.03280767967862       -0.30890534217393
C           13.65494520973605        6.93704459796724       -1.35219173300836
C           13.67144990837676        5.55168462786323       -1.30026068875202
C           13.01040332698945        2.74448519286975       -0.15789328691320
C           11.72711398936571        3.39268347722949       -0.16884878876231
C           10.78607856170727        2.41603044425579       -0.16147816575521
C           11.48453886517285        1.16322111645851       -0.13314814717623
N           12.83130111983685        1.39125647610272       -0.12730467264009
H            9.78630663041619       -0.08980307841775       -0.10875851368841
H            9.75727741908983       -2.69778531303649        0.06606588560905
H           11.65000024386559       -4.59463919270054        0.25275222895986
H           13.38561347773408       -5.26692537717126       -1.63643042438695
H           13.39907035907512       -7.73454924132242       -1.48586508487101
H           13.97701109872451       -9.54182351185593       -0.20631812664483
H           15.26724914840683       -7.49322670896616        2.36011027395445
H           15.24589446970124       -5.01910856228517        2.21415815197865
H           16.96297340449185       -4.55835114643313        0.23058807031723
H           18.83140962043012       -2.63158614665504        0.17634507714172
H           18.78705590267311        2.61956867043261       -0.11011815136132
H           16.88599984121802        4.51028499187000       -0.24926227486991
H           15.19239391010202        5.13118637254248        1.69629356680104
H           15.16528975338442        7.60768593775979        1.60853220710793
H           13.78468269468091        9.37999536782299       -1.11241794502628
H           13.22571284216622        7.44946172540344       -2.20658511014125
H           13.26257068847313        4.97901267878836       -2.12535586324063
H           11.57161002254888        4.45958778934806       -0.16765589904758
H            9.71248660612908        2.52115217085286       -0.16486181909202
Cu          30.31143879884572        0.04491990393412       -0.00721128798963
C           33.71597230285433        0.06571953345177       -0.10373873773270
C           33.08197700670681        1.29575710328812       -0.19506668458936
C           33.75852469218517        2.55802390555054       -0.27926793423793
C           32.80060116062443        3.51691020408060       -0.32869783225225
C           31.52888726330824        2.84758960913067       -0.28723600304077
N           31.73146837299772        1.50047479977968       -0.19716499450596
C           30.28474325123161        3.48334331207505       -0.31228717574655
C           30.27294862045964        4.96233535750186       -0.43733373772755
C           30.81486193871400        5.58328614595441       -1.56287760888580
C           30.80357783878672        6.96425571796218       -1.68497670244065
C           30.25132294542002        7.74305471001190       -0.67090840766184
O           30.22241880557590        9.09883555860982       -0.74824596928020
C           29.70960070721625        7.13574830416166        0.46031729047598
C           29.71970107708229        5.75648210564325        0.56992969204877
C           29.05174453700358        2.83303537187397       -0.23077730922376
C           27.77410579378266        3.48184825863725       -0.31648497671232
C           26.82778408290250        2.51472848628143       -0.21026162714868
N           28.86253341383436        1.48357692312413       -0.08737616948323
C           27.51895609224357        1.26898087347757       -0.06629714675834
C           26.88228253069530        0.02177564796823        0.06334654385754
C           27.54032388643631       -1.21567189995386        0.17760965015981
C           26.87121600791419       -2.47690366658023        0.28562622707741
C           27.83439638175842       -3.43031319662403        0.35982440398568
C           29.10042964125487       -2.75607469514708        0.30448179452046
N           28.88747501865859       -1.40771721888914        0.18660698659483
C           30.34446407684724       -3.38955085803730        0.33352305055137
C           30.35932756212209       -4.86531782311928        0.49383812921555
C           29.83672308950955       -5.45858494875031        1.64553283800462
C           29.85502269994926       -6.83276794086049        1.80610878554639
C           30.39474416893647       -7.63820375863136        0.80505415650423
O           30.39567869613937       -8.98339115625567        0.99360730009297
C           30.91511053623201       -7.06137668788029       -0.35103453450152
C           30.89837694271944       -5.68299165635962       -0.49964290162364
C           31.57704031100133       -2.74015674011723        0.22614002158341
C           32.86025703428642       -3.38489087794061        0.29503508991335
C           33.80123504041355       -2.41702891862195        0.16383977352773
C           33.10284167343390       -1.17145653873183        0.02577906325521
N           31.75615812580827       -1.39573001843252        0.06922799858822
H           34.80106396750531        0.07345578338237       -0.11872859220669
H           34.83011836207168        2.68159176050366       -0.28877251567204
H           32.93731367850977        4.58536267831137       -0.37494965712888
H           31.23341597363535        4.97760529659382       -2.35902491395039
H           31.22052064282452        7.44104135976473       -2.56563300465377
H           30.62293481066887        9.41309949067629       -1.56988415215195
H           29.28705151228913        7.75390260440264        1.24269184570217
H           29.30890940812339        5.28479621009067        1.45566073096891
H           27.62334921205651        4.54007095856979       -0.45597550534717
H           25.75542450775025        2.62514488402100       -0.23292491943846
H           25.80092705198448       -2.60707067578678        0.29650224190211
H           27.70253143937375       -4.49781913078400        0.43070376890514
H           29.42813502350159       -4.83120687705761        2.42984648602654
H           29.45677619114303       -7.29451443488584        2.70111392681470
H           30.79220505790343       -9.44375889577462        0.24187015937555
H           31.32992556137883       -7.69265410995489       -1.12961805389942
H           31.29281497513409       -5.23614318663583       -1.40552896791260
H           33.01566503611127       -4.44197004211935        0.43958394158641
H           34.87479633997496       -2.52245739893744        0.16800298415852
C           22.90776795121077        0.00487404168201        0.07484636145215
C           21.67959607163773        0.00274649516507        0.07585350612837
C           20.33475496514824       -0.00023491026543        0.07473832606683
C           19.11099356283451       -0.00316845759751        0.07057388151712
C           24.25260833362397        0.00777085877192        0.07261562158431
C           25.47636151802631        0.01200936821357        0.06853578390974
