268
 energy: -495.553490577493 gnorm: 0.000680600867 xtb: 6.5.1 (b24c23e)
C           41.02346693762249       -0.13670052754228       -0.29205553218979
C           41.60029634855242        1.09478039679379       -0.57409531234339
C           40.91584116704011        2.31112600455305       -0.85269796593964
C           41.85286421951377        3.27899393725689       -1.08141908553928
C           43.14045073987824        2.68237041681321       -0.95970361454615
N           42.93700941474980        1.36903335757170       -0.64499586716770
C           44.38844784420528        3.29847108557731       -1.10612884446513
C           44.38073814626540        4.73680733139465       -1.47176058091167
C           44.94590474150394        5.68478089730779       -0.62332953018212
C           44.93444804295008        7.03639233038847       -0.96532247670549
C           45.54957732327317        7.99930747522464       -0.01723832638592
O           45.49555550230717        9.27214035343672       -0.43600446796398
O           46.05371829660529        7.69251635276904        1.03254750712947
C           44.35651636562532        7.44931715911197       -2.16576113925370
C           43.79437279065079        6.50737762470253       -3.01291026333402
C           43.80354500900420        5.16245910686303       -2.67055898094071
C           45.62159075031079        2.66574321623879       -0.93465676034980
C           46.90336199648655        3.31494128823474       -1.14557572713597
C           47.84821881874780        2.38844967568861       -0.88457459438135
N           45.80949615029188        1.36664366960102       -0.57260233462572
C           47.14273457069977        1.17343602034310       -0.52413038677903
C           47.81070221612077       -0.01782162160902       -0.17479924379581
C           47.20659087590385       -1.24585982002828        0.15634733909786
C           47.88163118934212       -2.43388373001456        0.54301036764505
C           46.94001306288781       -3.39753860475170        0.77631973527122
C           45.65983448387131       -2.82870742057543        0.52900767862463
N           45.87279965697041       -1.52525256656028        0.16539577691664
C           44.41358821230153       -3.45234990571104        0.65081236964612
C           44.41712366031382       -4.88421106575394        1.03862203047672
C           45.04745704448604       -5.83750480536047        0.23557492140820
C           45.04913966780744       -7.17766514572426        0.59713710236451
C           44.42474908909975       -7.58303355926893        1.76477575387481
C           43.79248857186734       -6.63998422369346        2.57660078665008
C           43.13536014267745       -7.11392896770555        3.82077019080678
O           42.55622934046541       -6.13387708593032        4.52911421855547
O           43.11045354152430       -8.26328670214605        4.17984554014767
C           43.78881106167693       -5.29515182970057        2.21273063278777
C           43.18040760799746       -2.82702831548824        0.43876115755846
C           41.89451066907561       -3.50326453248386        0.51700404362367
C           40.95643853329511       -2.57133987738915        0.25491515391594
C           41.66819439995709       -1.32983994151297        0.00613817601168
N           43.00536047052653       -1.52390878199553        0.11552556664205
H           39.93849180850996       -0.15992027850206       -0.30840345461184
H           39.84309372488541        2.41966305130186       -0.86655159514684
H           41.67349818534809        4.31801147831332       -1.30564622527380
H           43.68091604053105        0.69936526242053       -0.47936146903462
H           45.38811285134138        5.38365622828595        0.32001932385589
H           45.91584539010211        9.83482669308868        0.23454504846816
H           44.34961702401680        8.49970274213619       -2.43040344637444
H           43.34647491455486        6.82060941929247       -3.94921989735645
H           43.37445138140109        4.43002554793461       -3.34528594323499
H           47.03974149416606        4.33607500288865       -1.46262488647168
H           48.92067528669883        2.48933410700810       -0.93083541358878
H           48.95158151939266       -2.52770157243069        0.63545641212066
H           47.11375444572845       -4.41016158199758        1.10190959910762
H           45.13325020362301       -0.86553832842820       -0.05262315712243
H           45.52374272943184       -5.52557960201328       -0.68727814294953
H           45.53872651533195       -7.90632528887648       -0.03889046211564
H           44.41680630649874       -8.62556303411403        2.06212680959382
H           42.15232667445998       -6.52342786994607        5.32155583529974
H           43.30971374768941       -4.56333842919215        2.85224993043144
H           41.75417821210984       -4.55061397376469        0.73073803832773
H           39.88422431078937       -2.68372455513991        0.21831052198952
C           95.83701034450317        0.02054311202584       -0.43891246581473
C           95.26478568290315       -1.22256092680108       -0.20194066332360
C           95.95311073779220       -2.45281798053653       -0.00603031088594
C           95.01996423540497       -3.42988008548924        0.19819648789903
C           93.73050928579374       -2.82968088117395        0.12219815721404
N           93.92961534186173       -1.49899090099730       -0.11259792198174
C           92.48539274256942       -3.44987623633428        0.27484596974043
C           92.49600077440431       -4.91474464055943        0.51419054087024
C           91.97316488515175       -5.44089352087475        1.69217013821243
C           91.98551507529467       -6.81648952774217        1.91911335457549
C           91.41904689959787       -7.31619397261593        3.19741942424896
O           91.47754585903179       -8.64988442355453        3.32391996405243
O           90.94789283953841       -6.61265214032825        4.05361643526342
C           92.52029702602945       -7.67842149337469        0.96176584736080
C           93.04016749120223       -7.15716433355439       -0.21251689762690
C           93.03143632307201       -5.78743304083625       -0.43599008999673
C           91.25069044772040       -2.79983696286968        0.21675855955364
C           89.97114266528385       -3.47951837850971        0.31607311207275
C           89.02290588564216       -2.52695352739161        0.20337280451848
N           91.05773468038944       -1.46460856802623        0.03298697689984
C           89.72386966564733       -1.26903651103758        0.03001329429616
C           89.05229075787533       -0.03728283116552       -0.10755232588751
C           89.65338382424449        1.22255964719427       -0.29295078966024
C           88.97682780240864        2.46699096873759       -0.39510427028890
C           89.91585759814332        3.44417943675219       -0.57667414113638
C           91.19543195753515        2.82325102964102       -0.60078719635056
N           90.98526575629941        1.48216190840532       -0.41691821952089
C           92.43871872328793        3.44400250010268       -0.75769763487827
C           92.43026011955455        4.91382232631894       -0.96295144689604
C           91.80365967234989        5.47110325302688       -2.07971436965677
C           91.79815658933046        6.84536380046434       -2.27510226536365
C           92.41233706998729        7.67991254296618       -1.35649443663725
C           93.03890515062949        7.13517396362105       -0.23453588543043
C           93.68091087870781        8.06364669409321        0.72980696412382
O           94.25111273540821        7.44432631362449        1.77334701572581
O           93.70041298538663        9.26180257600562        0.60846722746181
C           93.04930701539841        5.75540106828586       -0.04110447726834
C           93.67257582573171        2.78620357608683       -0.73702975774219
C           94.95303830683989        3.44122362143803       -0.95595423524017
C           95.89371180042080        2.47971583070175       -0.86734763933080
C           95.18865145454262        1.23761049357405       -0.60243992400244
N           93.85286120022032        1.45897600857304       -0.53882042770121
H           96.92063795289106        0.03346606536261       -0.49848523697034
H           97.02592478118459       -2.56127518350833       -0.01540496528540
H           95.20353410598851       -4.47404667494076        0.39325111562414
H           93.18416323650634       -0.81609758369007       -0.19766876345344
H           91.56391205505909       -4.78489811631023        2.45262846692937
H           91.09082735965183       -8.89589300250573        4.17998523076133
H           92.52658003167879       -8.74713302300298        1.13843598600812
H           93.45397633690028       -7.82149275976492       -0.96268975047708
H           93.42749291318694       -5.38840218799984       -1.36320467357495
H           89.83829535548921       -4.54189990763185        0.44065338282469
H           87.95075221490393       -2.63831418628801        0.22716940551853
H           87.90780062305804        2.58973168143351       -0.33003570389256
H           89.74149541707095        4.50312107702690       -0.67609974413858
H           91.72532185110646        0.78935424379740       -0.37216044972666
H           91.33299307311628        4.81887332456923       -2.80693093593910
H           91.31305998251960        7.26298051903623       -3.14998258493684
H           92.41607808645360        8.75542624971285       -1.49292202765692
H           94.64420946726655        8.11634382171654        2.35360057572083
H           93.52634297145516        5.33552790068890        0.83649933911976
H           95.08709534444331        4.49128820529462       -1.16039494127904
H           96.96353017240698        2.56952649048207       -0.97248437807446
C           53.01157120562755        0.04186348261421       -0.07004252445316
C           51.78329782272402        0.03582591701698       -0.09603469489458
C           50.43963266094753        0.02058639700915       -0.12286768975257
C           49.21586871458133        0.00760624639406       -0.14756035353268
C           54.35509538038119        0.04495599502982       -0.04052647488214
C           55.57906305505637        0.04064811772667       -0.01323168242395
C           69.04599533344624        0.00444285027046        0.10903443688329
C           67.81706313067804        0.00869689787689        0.11400960674127
C           66.47378303924529        0.01146820610430        0.11543991909181
C           65.24925021738696        0.01525156021241        0.11634933934262
C           70.38926578057010        0.00112551162964        0.10351055214051
C           71.61379657207542       -0.00538693458941        0.09844628653385
C           85.08060800068147       -0.05051411075987        0.00805557476530
C           83.85225971543063       -0.04314160637158        0.03195024542498
C           82.50868906293329       -0.03525760552991        0.05092416053289
C           81.28450419003983       -0.02515949513708        0.06198692511468
C           86.42415108148776       -0.04793002086369       -0.02270071895674
C           87.64778884072842       -0.04964793270808       -0.05661222000391
C           56.98323708723184        0.03722762766932        0.01744991595556
C           57.61021238279250        1.28566676503322        0.19543874418717
C           56.96263333657239        2.54134274563699        0.32455853743712
C           57.92670029731949        3.49479209155350        0.50772621626996
C           59.19142248755952        2.84578028660970        0.50346044539670
N           58.94980529498550        1.51365889912362        0.30060805710022
C           60.45002988570567        3.43999528109718        0.65787194423822
C           60.46041985897762        4.90306157221601        0.90951837248079
C           61.08135367323376        5.77013791778159        0.01497800755520
C           61.08880836044266        7.14413099673697        0.25175851312683
C           61.76423379187237        8.01730561266150       -0.74119668192328
O           61.71630213308887        9.32048424728928       -0.42880207558365
O           62.31162155596093        7.61801925604792       -1.73676123021096
C           60.47425868555088        7.66069248982036        1.39233932351600
C           59.85648459489234        6.79925672485426        2.28523943910095
C           59.84663403220674        5.43203926964074        2.04745646557384
C           61.67593394483396        2.77669275877932        0.59322869403830
C           62.95926895139868        3.42259029352941        0.80542549238185
C           63.89840974699686        2.46726394449424        0.64836719531647
N           61.85604537542545        1.45116911438652        0.33760197163565
C           63.18709756829386        1.23904526586284        0.35276213483068
C           63.84526248846112        0.01586979364479        0.11167031528057
C           63.21926887408669       -1.22107905118411       -0.13785593429322
C           63.86927200801213       -2.45299589217311       -0.40781354685420
C           62.90533489738046       -3.40884458503826       -0.57765833824678
C           61.63779966081320       -2.78820787490296       -0.40666240527799
N           61.87858127099738       -1.46448851362355       -0.15237223079287
C           60.37815172685155       -3.39316903705524       -0.49398474320497
C           60.36539915744753       -4.85571834940041       -0.74825024183356
C           59.76454584959004       -5.36735204398267       -1.90073607524347
C           59.75251327713374       -6.73351549960674       -2.14496376584912
C           60.33793934965482       -7.60569317671379       -1.24252640017645
C           60.94159093390449       -7.10677159734272       -0.08730946244829
C           61.55903422402783       -8.07355852195179        0.85513645914705
O           62.13233770462972       -7.49387766006665        1.91986934914425
O           61.56140472841638       -9.26758893964773        0.69833300911736
C           60.95525821834772       -5.73500968536066        0.15720418484428
C           59.15163976612378       -2.73936065010916       -0.36566747428503
C           57.86661961273171       -3.41471373974808       -0.40093662150575
C           56.92732245110560       -2.45661849461696       -0.25996593629551
C           57.64008944715333       -1.20131614806731       -0.12874902787913
N           58.97219809874370       -1.40220545315459       -0.18293822101507
H           55.89574030357044        2.68833685115321        0.27771359088705
H           57.77675675877286        4.55556172365739        0.62527456136237
H           59.66984085260297        0.80211606361633        0.23335980898339
H           61.55289160958919        5.38755923276407       -0.88358166209387
H           62.17801537240373        9.82025826762404       -1.12159585360628
H           60.48254462770561        8.72829133700615        1.57549084207951
H           59.37965784794754        7.19331240729543        3.17557503980903
H           59.37330921759976        4.76304555578208        2.75752582798608
H           63.10047057910116        4.46241106312888        1.05153628714288
H           64.96998319195947        2.55675414747420        0.72696456642862
H           64.93785102517440       -2.58169763626092       -0.46785904480983
H           63.05748002859798       -4.45016827812488       -0.80989113528259
H           61.15717988557854       -0.76652834381933       -0.00515359157799
H           59.31757019693092       -4.68497160563510       -2.61494110508959
H           59.28532093500382       -7.11544176231020       -3.04549349846663
H           60.33718417596793       -8.67560799643772       -1.41752628902914
H           62.50985032663974       -8.18895453880509        2.48313542669653
H           61.41081055493085       -5.35224911992151        1.06284851583921
H           57.72406351463609       -4.47819210418134       -0.50406301982734
H           55.85470262888204       -2.56357392754869       -0.23556397652282
C           73.01773481788443       -0.00717044383822        0.09254204064530
C           73.64666233953662        1.24156954153216        0.26365667863148
C           72.99967318545633        2.49573915855385        0.40920596586033
C           73.96584916672502        3.45162825171486        0.56671516335081
C           75.23153281716996        2.80551248778584        0.53106904060303
N           74.98776527238677        1.47244104559374        0.33558928956338
C           76.49223996888664        3.40224428996769        0.65400507080351
C           76.50595927143813        4.86625943177759        0.90023170902980
C           77.10375384291208        5.73177103349846       -0.01140259375890
C           77.11350728356409        7.10656401070628        0.22083830551124
C           77.76388567089511        7.97845937778550       -0.78989177482928
O           77.71840560776189        9.28249222046665       -0.48076354209930
O           78.28878966910376        7.57773589398391       -1.79690520673390
C           76.52464616755006        7.62540102624124        1.37384354047678
C           75.93029025855942        6.76547046490106        2.28392694504858
C           75.91811139828529        5.39751860301957        2.05075646382663
C           77.71750624343478        2.73998853953011        0.56699383284197
C           79.00380477973961        3.38801071741661        0.75330258654210
C           79.94071082766521        2.43174024001482        0.58899054993132
N           77.89394607032942        1.41324902865501        0.31646138112648
C           79.22540404354709        1.20135622185659        0.31268572052052
C           79.88009585996748       -0.02317245122988        0.07112961113879
C           79.25137367117354       -1.26036050147379       -0.16968775734115
C           79.89833965163918       -2.49164895871616       -0.44956455469459
C           78.93242520538622       -3.44628508298694       -0.61504987248619
C           77.66687484162462       -2.82572859124184       -0.43015912649282
N           77.91042517635688       -1.50324968826785       -0.17277883612461
C           76.40605534193115       -3.42994570281734       -0.50763535184606
C           76.39099156545949       -4.89105050398693       -0.77047433241438
C           75.78146585364964       -5.39624557927379       -1.92115173400899
C           75.76945365200316       -6.76093934094893       -2.17371254107973
C           76.36299001415998       -7.63789856973496       -1.28125495737170
C           76.97426387404897       -7.14540425751671       -0.12728431681155
C           77.59964493945867       -8.11685166567881        0.80507788863102
O           78.17318692161602       -7.54300557216942        1.87275622122508
O           77.60692007344275       -9.30961357917374        0.63878729077140
C           76.98827720553444       -5.77514300232758        0.12535408217057
C           75.18143483778645       -2.77754899163804       -0.35903466152152
C           73.89644117731456       -3.45358209244652       -0.37975129422580
C           72.95908245130009       -2.49788681873472       -0.21232070734408
C           73.67317656670311       -1.24317385867482       -0.08154202742770
N           75.00396151163473       -1.44196764536047       -0.16152172479513
H           71.93163448697051        2.64041987447564        0.38873803430446
H           73.81629881123460        4.51217462171928        0.68674016165913
H           75.70806308928734        0.76319143712038        0.24946404854155
H           77.55528524708424        5.34737931294648       -0.91941961067881
H           78.16245352733974        9.78174512920737       -1.18537794402000
H           76.53463843964775        8.69359740799513        1.55337061916570
H           75.47373688486202        7.16135273423744        3.18402745126943
H           75.46340931239216        4.72962429436681        2.77391132330447
H           79.14822125267220        4.42974070134959        0.98924759984289
H           81.01335107401867        2.52186531041387        0.65040371449670
H           80.96623582835593       -2.62076342581434       -0.51982728834954
H           79.08214468491251       -4.48664995501645       -0.85307534785054
H           77.19049770549994       -0.80584532026473       -0.01601586678341
H           75.32777834052393       -4.71007581430975       -2.62744991690532
H           75.29595827933359       -7.13797102049704       -3.07301340720242
H           76.36264296262199       -8.70667277146408       -1.46310520509011
H           78.55556690171366       -8.24050592842647        2.42967742328300
H           77.45036361201853       -5.39715644375856        1.02967973807546
H           73.75329726874882       -4.51612263518112       -0.49140265350385
H           71.88711408106401       -2.60584247684800       -0.17008996066611
