272
 energy: -557.355745132914 gnorm: 0.000900820424 xtb: 6.5.1 (b24c23e)
Ni          47.20988559882343        0.07095884847144        0.01547307699358
C           43.82138499438119        0.17625615379676        0.06655361611394
C           44.47293263472544       -0.27910118659521        1.19397191552551
C           43.79866152879184       -0.74425399238989        2.36767964177010
C           44.75628187428569       -1.00840025163709        3.28688978437682
C           46.01475443236146       -0.68769728463936        2.67856321311954
N           45.83278790597954       -0.28274050646020        1.38020469391041
C           47.23286227839416       -0.72172143754031        3.34494509768931
C           47.25028483340590       -1.07769295047953        4.78338148415314
C           46.58029641990809       -0.28291829647963        5.71662612913729
C           46.60372793895007       -0.60888291599379        7.06275175990808
C           47.29755491349179       -1.73991568219598        7.46127224003115
S           47.34183687395710       -2.15125082932945        9.16503828468375
O           47.11835807780434       -0.99054633742765        9.97565246873073
O           46.00491352175721       -3.07184414912470        9.21927100830209
O           48.47162816247570       -2.98300543564168        9.45815329042853
C           47.97118846334529       -2.54764562786781        6.55952371638406
C           47.94596352709906       -2.20918158960240        5.21669032596228
C           48.43897924244571       -0.42850432445136        2.72138009297911
C           49.69755640336661       -0.37509167883270        3.40189427249898
C           50.64331598025928       -0.15414326266386        2.45755781919864
N           48.60889550258292       -0.19688632950772        1.37599969497306
C           49.96054666192039       -0.06887763552963        1.20587173228027
C           50.61988109428752        0.02482825379760       -0.02235785216212
C           49.93677079211793        0.12143521667815       -1.23741628651717
C           50.59312260738838        0.16348508904537       -2.50518451788510
C           49.63096935247953        0.37954091555954       -3.43412846886972
C           48.38999555010844        0.48121721779967       -2.72718296203469
N           48.58503782824953        0.27616582636831       -1.38072262873362
C           47.18015524876608        0.80645686820663       -3.32705240628757
C           47.17013563243295        1.12686353347226       -4.77383585753232
C           46.42825564074566        0.34743420001384       -5.66454857881234
C           46.41758171388182        0.64407979691680       -7.01769251336475
C           47.15281549614033        1.72902571106314       -7.46646331860363
S           47.13289920435688        2.11934095187647       -9.17600110936071
O           47.41241118635417        3.50928934793374       -9.39085908404759
O           48.44744551645094        1.28042217063276       -9.63055673513963
O           45.98174029202119        1.54540871252599       -9.80593553532654
C           47.89300973384358        2.52439486643118       -6.60665063021459
C           47.90057073363194        2.21580641766706       -5.25652145342216
C           45.98203767478570        0.85236975198416       -2.62565441757822
C           44.72783094792887        1.24164040956426       -3.20207523609344
C           43.78615252707276        1.06570692150052       -2.24614251931372
C           44.46604755472970        0.57861326765122       -1.08454780789820
N           45.81653424805956        0.48735283777364       -1.31355140541961
H           42.73852798630788        0.21378438735531        0.08388923857713
H           42.72924661687976       -0.84959568311058        2.45656465448775
H           44.63505482982568       -1.38695295937654        4.28879492533372
H           46.05426496350350        0.60473794709099        5.38523412564461
H           46.09891919709777        0.00674569820711        7.79662508731766
H           45.85521576261264       -3.39117938052088       10.11746730318973
H           48.50817958386452       -3.42143184316312        6.90668367810794
H           48.45967615122981       -2.83137773173642        4.49315655493021
H           49.82960256012885       -0.48641656511469        4.46564935599661
H           51.70996219648432       -0.05950873826092        2.58100107544091
H           51.65450946672508        0.04231377202876       -2.64949468790531
H           49.74135500749814        0.46033360790704       -4.50310699902932
H           45.86812620955816       -0.50309871452475       -5.29398867067521
H           45.84616100425499        0.04697052572818       -7.71715506249927
H           48.73926837563295        1.56822913318115      -10.50436017365431
H           48.44607889503691        3.37269181118066       -6.98997310190964
H           48.46347317638792        2.83176193482194       -4.56496914574024
H           44.59882850050936        1.60509641081730       -4.20856343755527
H           42.72391439632444        1.24164120161842       -2.30350663804272
Ni          95.20663646980640        0.05496875591462       -0.00323710881239
C           98.59629333302878        0.17688903073114       -0.01930257871209
C           97.94193296942677        0.17844229433377       -1.23351694509663
C           98.61452447694691        0.19392111013009       -2.49681516210695
C           97.65500568662790        0.28924345105910       -3.44642581601283
C           96.39697084502012        0.34743607966666       -2.76035148167486
N           96.58137502061128        0.23718533969508       -1.40520640875141
C           95.17612726162078        0.54847132998722       -3.39119276068564
C           95.15854438829139        0.75663311319177       -4.85849171405860
C           95.81091645548872        1.85557079615436       -5.42263448390486
C           95.79038392732954        2.05761292003950       -6.79285465341964
C           95.11715225380544        1.14570286781058       -7.58945758802844
S           95.07882335957687        1.40111440188332       -9.32357862276298
O           95.28918041843393        2.78328163947583       -9.63868986941664
O           96.42550544138655        0.58005286638087       -9.71148539463602
O           93.95984286635856        0.72751879697886       -9.91406041989399
C           94.46074160451400        0.04684879161753       -7.05931833964035
C           94.48285934534080       -0.14235233712526       -5.68736074332687
C           93.96929535689613        0.57093297563933       -2.70417497656536
C           92.70658063021743        0.84962651727774       -3.31912899444860
C           91.76284141289543        0.69815856644333       -2.35945051313762
N           93.80320053843162        0.29306868979629       -1.36706716717089
C           92.45089836890341        0.33365417954229       -1.16185573233503
C           91.79579146690389       -0.01809343490781        0.02060158605752
C           92.48151330541947       -0.35423794890313        1.19024409907485
C           91.82691332085692       -0.76635394947041        2.39098634491046
C           92.79128690720987       -0.90213843052516        3.33249447264123
C           94.03192257691387       -0.55939840500316        2.70515650064780
N           93.83413455367457       -0.26435985279243        1.37588035195412
C           95.24490721847252       -0.48508794920115        3.37746896553677
C           95.26059683441117       -0.71868207471758        4.84088698046655
C           95.99391111602571       -1.77962550281650        5.37752971933192
C           96.01292855745490       -2.00045319681058        6.74495460430340
C           95.29442469672695       -1.14712362393636        7.56632554719221
S           95.32687636537217       -1.41110728846248        9.29974101085613
O           95.06300550411923       -0.19478728173417       10.01202520203458
O           94.00576904815166       -2.34737987582119        9.42793143087263
O           96.47545658537436       -2.18499895243466        9.66457750711364
C           94.56236578630526       -0.08331398639497        7.06420014223647
C           94.54644768052964        0.12537290497752        5.69506690544053
C           96.44281220775608       -0.19385736077667        2.73752518122242
C           97.69996444115685       -0.05266907664574        3.41321634427306
C           98.63926956084072        0.13496690689163        2.45730110221257
C           97.95496359886205        0.11780667351725        1.20027380800604
N           96.60449171621644       -0.04767039195013        1.38302975314775
H           99.67909892665242        0.21944959729331       -0.02398315805924
H           99.68419140815426        0.13694222217319       -2.62014425451004
H           97.77452038014933        0.31675665238484       -4.51729611431974
H           96.32143227647094        2.56340942433636       -4.78012356938725
H           96.28203074739423        2.91237484952728       -7.24010863912810
H           96.55747993035924        0.58718446083950      -10.66733807887965
H           93.93945809439025       -0.64281209877694       -7.71123552502258
H           93.98284534728732       -0.99977400028168       -5.25225752337746
H           92.57065755804635        1.13086746645800       -4.35053653139094
H           90.69441043277088        0.81592180708862       -2.44023748779410
H           90.76516802359734       -0.92712700075897        2.48518167701471
H           92.68286023001428       -1.20970841806455        4.35967266196292
H           96.54128217160820       -2.44110715142415        4.71625696948550
H           96.57831178595883       -2.81916023443290        7.17199078648424
H           93.70953503062201       -2.37922423570652       10.34582106756485
H           94.02233326573283        0.57161415811653        7.73641853754961
H           93.99007103581309        0.95878922014173        5.28230245771152
H           97.83233644684768       -0.08953238998099        4.48225998509405
H           99.70248319784717        0.27264344308342        2.57228002279296
C           55.82157007150548       -0.01285792167776       -0.05574553229801
C           54.59408434352876       -0.00197892577647       -0.05399547480122
C           53.24856206506681        0.00547807329568       -0.04500621467105
C           52.02564281021301        0.01306943390767       -0.03643205180515
C           57.16697494053896       -0.01832846834769       -0.05806543130841
C           58.39012372512259       -0.02189112016574       -0.05592776788308
C           71.81943647591751       -0.04865118604512        0.00754937522618
C           70.59147931383693       -0.04392952902089        0.00178102093370
C           69.24674635243568       -0.03825216407181       -0.00354550127112
C           68.02325325039573       -0.03723048717990       -0.01004836867221
C           73.16419796272419       -0.04702495631390        0.01097059390808
C           74.38770046885409       -0.04867453556902        0.00978336139286
C           87.82066444158045       -0.06526902976673        0.03933491730740
C           86.59342404236261       -0.07316542333070        0.03544294924932
C           85.24749008217577       -0.07931562494944        0.03361286892841
C           84.02457793126450       -0.07955967225228        0.02781082865028
C           89.16673658724510       -0.05270720899975        0.03833947813100
C           90.38939437797940       -0.03939882047816        0.03153772244604
Ni          63.20700542158829       -0.02560540484946       -0.04150029750366
C           59.79511439011529       -0.02323575742342       -0.05334617620382
C           60.46706551112397        0.92451111192825        0.72402840612480
C           59.80089861383645        1.87840228542893        1.55208406840612
C           60.75469010954017        2.71816522107378        2.02277899760297
C           62.00009684145876        2.27826850384115        1.47143567579443
N           61.81712833397666        1.14481737749674        0.71352279128724
C           63.20291345184629        2.95626820442811        1.62400367282835
C           63.19916023647456        4.25021692755454        2.34554226033062
C           63.94812382486493        4.40698224336704        3.51427315391129
C           63.94376463296410        5.61313001391470        4.19547584413113
C           63.18691721830700        6.65832723976509        3.69183876966216
S           63.18563592718416        8.19203219048346        4.54242609942007
O           62.89128380312759        9.27569984612425        3.65077415163686
O           61.87450650359136        7.95141157721002        5.46981663301974
O           64.33559111141167        8.29367621442145        5.39004002565403
C           62.44002621480683        6.53559928958726        2.53131412600233
C           62.44704124223878        5.32349078606516        1.86120660009127
C           64.40781888370893        2.47169531223013        1.13180270256284
C           65.65290204800017        3.17160372229526        1.22336294548208
C           66.60940982774559        2.32851816854981        0.76422681264631
N           64.59414297287620        1.23056955620626        0.56730712481308
C           65.94509799981903        1.12307470760625        0.38369260536229
C           66.61903977757471       -0.03397077060033       -0.01915838293840
C           65.94463691918141       -1.18674844088868       -0.43328316915634
C           66.60797948101781       -2.39409028729320       -0.80943085617249
C           65.65371943762830       -3.23008342478868       -1.28589146855962
C           64.41091618202846       -2.52441299302126       -1.20807671804918
N           64.59575145762942       -1.28662552660487       -0.63594310146700
C           63.20987754362575       -3.00244656216945       -1.71611802952628
C           63.21106897288293       -4.29315993789424       -2.44342662182418
C           63.97377665193126       -4.44618715767591       -3.60381095544650
C           63.97666143456109       -5.64970712477390       -4.28958925100839
C           63.21302686521565       -6.69620975177937       -3.79898129684893
S           63.22241985982032       -8.22721091199901       -4.65430000862766
O           62.91569202676360       -9.31351279594695       -3.77007257429790
O           61.92386975253504       -7.98337479166326       -5.59871809707579
O           64.38351535645501       -8.32686686633033       -5.48687435166112
C           62.45198211964297       -6.57702120604439       -2.64727003033965
C           62.45193422529278       -5.36747848413748       -1.97249769071294
C           62.00720441775894       -2.32248794551462       -1.57150896476350
C           60.76502595750026       -2.75866452204246       -2.13305783199023
C           59.80884884157262       -1.92039196873877       -1.66439334137575
C           60.47055775479807       -0.97036234027809       -0.82844259528088
N           61.82031228397049       -1.19177311746965       -0.81040512623632
H           58.73895376754263        1.89345831531971        1.73654656754207
H           60.63543488271146        3.55931963161471        2.68587106480231
H           64.52489009412311        3.57301513613290        3.89677076140352
H           64.51975697568137        5.74570218911312        5.10263082672502
H           61.57031272438159        8.78911794825250        5.84022356068267
H           61.87002861739747        7.37757619281552        2.15901196041627
H           61.87859943103850        5.20925430865220        0.94559942595995
H           65.77016261346300        4.17830044044873        1.58974630524981
H           67.67190541906309        2.49284798006702        0.68662502016600
H           67.66846029648430       -2.56422375388511       -0.71786656055864
H           65.77099304194374       -4.23578686845035       -1.65498367400012
H           64.55616702623273       -3.61140713498455       -3.97588266944896
H           64.56369750363208       -5.77943936694251       -5.19008234864510
H           61.62605109396165       -8.81979802291013       -5.97692183079951
H           61.87691484241653       -7.41995843439217       -2.28500319925395
H           61.87279607379146       -5.25638899846789       -1.06321912393522
H           60.64924881885153       -3.59691471958844       -2.80047524265680
H           58.74803877906795       -1.93370606028103       -1.85551794662015
Ni          79.20572348411145       -0.05372262807760       -0.00239529103856
C           75.79205262903999       -0.05005280909060        0.00601441897900
C           76.46848786196591        0.91953022010163        0.75236222269713
C           75.80501238985968        1.89573587402473        1.55634074802948
C           76.76198305565235        2.74045270565308        2.01110223696202
C           78.00670590122965        2.28062475756627        1.47462968301046
N           77.81929790795081        1.13288514870551        0.73881614509425
C           79.21360054082295        2.95038885306885        1.62577753719347
C           79.21863925696091        4.25229984384240        2.33353655495199
C           79.95437251277237        4.40891464850338        3.51066346000408
C           79.96317003296738        5.62285835551975        4.17780909356144
C           79.23289719483913        6.67578975128662        3.65158385839211
S           79.25279799740706        8.22054846686985        4.48204735600210
O           78.99709075953150        9.29848479885456        3.57171534999520
O           77.92218388216916        8.02385633319844        5.39159897241680
O           80.39193302861705        8.30655210277043        5.34571815430763
C           78.49846092084576        6.55261494385254        2.48316107319657
C           78.49175099377646        5.33262848933053        1.82731150423701
C           80.41796617921742        2.45081555006657        1.14709443745168
C           81.66686381136850        3.14378043493133        1.23999369715968
C           82.62008380859515        2.29219960369338        0.79047376326964
N           80.59864749690199        1.20466115888314        0.59309044212568
C           81.95001340666596        1.08839316197009        0.41466526516867
C           82.61894258513597       -0.07266187497141        0.01765752740337
C           81.94180833739699       -1.22349894821140       -0.39438342242201
C           82.60321767098033       -2.43009453027185       -0.77658833702271
C           81.64696225234945       -3.26336934207437       -1.25332229018500
C           80.40463447530367       -2.55781139429736       -1.16683313437041
N           80.59161806603154       -1.32175345405250       -0.59307554392514
C           79.19993610520525       -3.04020452807430       -1.66264992917426
C           79.20190856528392       -4.32710172094874       -2.39714648870906
C           79.94767767686093       -4.46282388144122       -3.57063688433951
C           79.95126241490881       -5.66026723149390       -4.26689443816156
C           79.20556296376554       -6.71825391017906       -3.77338914282543
S           79.21499846541303       -8.24125095026299       -4.64318858078576
O           78.93385010744795       -9.33867806214668       -3.76417067932797
O           77.89834039077432       -8.00171896214584       -5.56277335027915
O           80.36296557921993       -8.32117515278498       -5.49572477352509
C           78.46255558751331       -6.61655662984409       -2.60834737026453
C           78.46165145577889       -5.41289616261498       -1.92290878492620
C           77.99569304229324       -2.36791951990523       -1.50147365143089
C           76.74757628036953       -2.81760231388758       -2.03883371648456
C           75.79363389333433       -1.98102481246080       -1.56318234863676
C           76.46267039929748       -1.01665458551654       -0.74966357298393
N           77.81328452583514       -1.23107912606618       -0.74738836165710
H           74.74261112835644        1.92060667323340        1.73712160673264
H           76.64567287794090        3.59739241837358        2.65422192080023
H           80.51137491506104        3.56935784911265        3.90989582450591
H           80.52978934435021        5.75568299701141        5.09083906417129
H           77.61842927155206        8.87667917369125        5.72612916167945
H           77.94910566346037        7.40040033000635        2.09341576760891
H           77.93314094039779        5.21773603998083        0.90573996597073
H           81.78852667928871        4.15202825586272        1.60052077650871
H           83.68380098679130        2.44971623080375        0.71601527341730
H           83.66395192222355       -2.60079524782022       -0.68938094141263
H           81.76214447018860       -4.26745933187655       -1.62728662486727
H           80.51618491888256       -3.61923858719615       -3.94433244248994
H           80.52497662605634       -5.77642387201749       -5.17776295617201
H           77.59324290556185       -8.83926889284341       -5.93266942207570
H           77.90165869879414       -7.46819617758956       -2.24426070855897
H           77.89654035047928       -5.31558856512871       -1.00329714157120
H           76.62649226923040       -3.66329029875136       -2.69578233789833
H           74.73013845752286       -2.00280353912766       -1.73774688102496
