282
 energy: -451.921492272473 gnorm: 0.000448830496 xtb: 6.5.1 (b24c23e)
Co          46.62537292865020        0.15126674884156       -0.65086628395636
C           43.61998793367492        0.52907852169728       -2.04356988453938
C           44.14285134216859        1.59514560350321       -1.33893883917556
C           43.43257920840861        2.81413098608932       -1.09692562883948
C           44.16436392758997        3.51950304184205       -0.20109670962602
C           45.36027736569825        2.76753668230638        0.04294541648801
N           45.31931646548394        1.57752480639522       -0.63549397188390
C           46.45186876454576        3.23050552934438        0.76925704579480
C           47.67309728684157        2.57129466465780        0.73588280368294
C           48.90928230562378        3.16229232806314        1.15188947190849
C           49.89798283536498        2.32321674775784        0.75547391230622
N           47.90640762067079        1.35433459694218        0.14173361998359
C           49.26078050982311        1.19311582267550        0.15713018681238
C           49.94154115820032        0.02444732938618       -0.20845411646172
C           49.25263930862494       -1.17134980596152       -0.45050809194753
C           49.87949408980973       -2.45497167929110       -0.46934252684990
C           48.88378078695332       -3.37299843919615       -0.53812530449067
C           47.65429492046272       -2.64426626424033       -0.62764767109047
C           46.43354003038043       -3.22565922092361       -0.94181894924408
C           46.33665384976901       -4.70436066558332       -0.93979803070678
C           46.12237813694694       -5.41498436725573       -2.11793657609457
C           46.04100807914958       -6.80504874790958       -2.09872676994237
C           45.80061265293637       -7.55884913206566       -3.37886144092589
C           46.17375033067279       -7.47895791502788       -0.89046702254691
C           46.39746870041854       -6.78187734392648        0.29522556366329
C           46.53784675581600       -7.53087271021537        1.59275498046348
C           46.48217166544443       -5.39584807024584        0.26350770104373
C           45.35436814530944       -2.45683297949352       -1.36419254613160
C           44.16551014892199       -2.98064287758658       -1.97021629550520
C           43.44145732801217       -1.91845746001990       -2.39805703604662
C           44.14791355932907       -0.74511663151792       -1.98175692108987
N           45.31798342048176       -1.08706633757691       -1.35432313137509
N           47.89805734162650       -1.29383079289605       -0.55180836066467
C           46.36968910726490        4.52170226017558        1.49179183567170
C           46.14501162734913        5.71455773674639        0.80695654031608
C           46.08094088109067        6.92145918584759        1.49562639739872
C           45.86557058135142        8.20948101694679        0.74781967441989
C           46.24335111516370        6.92805408574277        2.87754734259414
C           46.47618684856862        5.74571250439954        3.57413480822611
C           46.63546365050345        5.76300615800422        5.07030347438977
C           46.54237393649200        4.54556071232327        2.87499299315640
H           42.67726563434694        0.66871923640970       -2.55994896717498
H           42.47737340585118        3.06250179303797       -1.53172685308574
H           43.93111727239135        4.47162533170887        0.24707993048649
H           48.99883017424198        4.11627346354436        1.64569953579743
H           50.96358084146863        2.43180449912803        0.87886556479544
H           50.94331426451453       -2.61840388515571       -0.40512134405782
H           48.96478121877687       -4.44747528359856       -0.56883040314242
H           46.04348150480207       -4.88243153572432       -3.05927910922230
H           45.98477596272905       -8.62471082203846       -3.24552327744051
H           44.76582289742969       -7.42575760297926       -3.70169326192941
H           46.45053978305226       -7.18567176230410       -4.17143501011776
H           46.10964049590968       -8.56203353070827       -0.86893259175443
H           46.86256129233389       -6.86732010030008        2.39397287048034
H           45.58024091802936       -7.97240097492874        1.87620807669922
H           47.26339476958685       -8.33922708956842        1.49043317292938
H           46.65085052709049       -4.83864945148287        1.17848625692492
H           43.93101521566313       -4.02823950101437       -2.06656187193772
H           42.49288547328923       -1.91184052366972       -2.91121318442872
H           46.04299484914515        5.70120500248903       -0.27254642725142
H           45.35065699499373        8.93992624622818        1.37213621585346
H           45.27951055352474        8.04067189266985       -0.15577900565494
H           46.82876891219371        8.63276934091686        0.45369881507486
H           46.19275291933260        7.86742739733892        3.41850791756187
H           45.65749918608458        5.67258334394974        5.54855855850385
H           47.08934644917278        6.69730561873248        5.40145580461255
H           47.25501764385347        4.93073083294679        5.40470112527717
H           46.71758438332677        3.61583910487011        3.40514594862566
Co          86.63478977645055        0.43719790518592       -0.34066724777287
C           89.73488139579922        1.53851635538101       -0.94847723110023
C           89.21937527611914        0.56797793171520       -1.78329778400684
C           89.96509861604093       -0.05530985582475       -2.83406255446457
C           89.18484001556590       -1.04375401222902       -3.33213781136460
C           87.93285204137838       -0.97549994712217       -2.63638095214716
N           87.98456692966434       -0.01351840497628       -1.65856029274339
C           86.79511707975013       -1.68430518453123       -2.99595808193335
C           85.55766748235268       -1.40061429754210       -2.43250698339565
C           84.31292877905564       -1.85398452593865       -2.97543296277761
C           83.33066799439187       -1.26153103178889       -2.25350752242740
N           85.33611798646491       -0.56333076860016       -1.36731350937859
C           83.97620302612304       -0.49179480515274       -1.23728541392019
C           83.29656311428319        0.09221330117728       -0.16681969695850
C           83.97523703491407        0.57744738650570        0.95360220145913
C           83.33467031130021        0.89202643867157        2.19124426852145
C           84.31674506483697        1.21942244727107        3.06583285521152
C           85.55187110720327        1.15946556980551        2.34321788913743
C           86.74999971608361        1.66219693006342        2.83048121180049
C           86.81269086921871        2.08838217176023        4.24943974944734
C           86.96378448522653        3.42986295943509        4.59029741861835
C           87.01381773602802        3.81706760936036        5.92709691323098
C           87.18565763643838        5.26987342192882        6.28054229593125
C           86.91388308315092        2.85052429687153        6.92074632183736
C           86.75521378310444        1.50501606248264        6.59465995864249
C           86.64881276157911        0.47499812787897        7.68655800560596
C           86.70154101231888        1.13082583250613        5.25807706522061
C           87.84239762679533        1.86565085526605        1.99736018635303
C           89.01748461985545        2.60224123674127        2.35987094479182
C           89.79968999004117        2.66363390817456        1.25617349953225
C           89.13735666833006        1.90293955240496        0.24013082953248
N           87.93257569764559        1.43411663009595        0.69899728156658
N           85.32893687986700        0.73394856219212        1.05523063251519
C           86.85864734697810       -2.68648961463105       -4.08620757711811
C           87.21616523205745       -2.31521355946958       -5.38124668436601
C           87.26264320283542       -3.26212544467598       -6.39909636661754
C           87.62234494521135       -2.85071217815755       -7.80134225599327
C           86.94857306690847       -4.58727633217892       -6.11329736201691
C           86.58272106270280       -4.97181456443689       -4.82665592024600
C           86.26006648741726       -6.41044132337265       -4.52536637803165
C           86.53599359925080       -4.01598653207148       -3.81778516018463
H           90.71256294247611        1.94628295351343       -1.17755250646491
H           90.96991955678168        0.21764122278790       -3.11522005739889
H           89.41922894599355       -1.74969773656480       -4.11226894125063
H           84.21624720472582       -2.51467536221667       -3.82167526703461
H           82.26226737920067       -1.35188643293900       -2.36690481493875
H           82.27094923400378        0.84132351525773        2.35989815851419
H           84.22286047621706        1.51623898700489        4.09783050028039
H           87.01981641283547        4.17914657343846        3.80830473293657
H           86.97967735817939        5.44229518751010        7.33680854705640
H           88.21035038164989        5.58590830909399        6.07340841114230
H           86.51543458212041        5.89136006323448        5.68519361334211
H           86.95355251559570        3.14577687420173        7.96427133100677
H           86.41295127603378       -0.50670598040644        7.27630959944792
H           87.59281066695593        0.40545990424401        8.23075251554923
H           85.87036162347994        0.75366369829108        8.39859494125519
H           86.58335224856397        0.08711092923030        4.98823867542502
H           89.20483479606467        3.02446134897392        3.33376456107889
H           90.76025330272162        3.13893839998190        1.13532415872063
H           87.43784292295359       -1.27603751383451       -5.59805983975818
H           88.10672395825809       -3.66922494557981       -8.33423293294408
H           88.29008319351689       -1.98898251354798       -7.79443386033968
H           86.71866857515411       -2.57582922431665       -8.35028207639200
H           86.98478587143255       -5.32918915426983       -6.90445860585206
H           87.17241309663855       -6.94636057318433       -4.25375467355872
H           85.82528652175108       -6.90142612820572       -5.39630068440801
H           85.56163038733079       -6.48540781446652       -3.69171183371263
H           86.25847717361877       -4.30273073445353       -2.80934706284460
C           52.56482686666823        0.01798156108807       -0.20022562332770
C           51.34094176308636        0.01692439613059       -0.19283316508677
C           53.91126160733938        0.01914962441704       -0.19899439713575
C           55.13506342173513        0.01999173989816       -0.19550182218975
C           65.93870157705437       -0.02356421370099       -0.13914881466705
C           64.71545709020157       -0.02759549698461       -0.14946824156742
C           67.28629511643726       -0.01724882136923       -0.12575154311409
C           68.50937690970916       -0.00668213825556       -0.11178584367198
C           79.31609803419472        0.09392075457312       -0.14149060577943
C           78.09527362955330        0.09696105339607       -0.12485307585598
C           80.66842544827342        0.08929142436566       -0.15454076022033
C           81.88933198751157        0.08088559172244       -0.15899945750438
Co          59.92445174868772       -0.00544260621595       -0.17910788488419
C           56.53459747335926        0.01397500172059       -0.18833335193922
C           57.22280863821883        1.20558386125528        0.06764197446511
C           56.58296199553904        2.44579612253338        0.37035971550271
C           57.54531895117258        3.40029936101100        0.32325146276432
C           58.76648384968587        2.73780417624840       -0.02138756502749
N           58.56656122866561        1.37904246814224       -0.10025702629611
C           59.94178323713398        3.38657083101103       -0.37620347540337
C           61.11156229254841        2.68707885760076       -0.64454706300589
C           62.33891318040337        3.28917753713241       -1.06831480144105
C           63.29141998040475        2.32623792889594       -0.99693154236388
N           61.29804854764470        1.34777445222550       -0.39450902605801
C           62.63924536297574        1.13935339617440       -0.54431851463178
C           63.31450493008931       -0.02326730464614       -0.15670121298019
C           62.62482539682283       -1.17827779534689        0.22747737586072
C           63.26239356751537       -2.37138300587219        0.68489149546113
C           62.29820965152573       -3.32211636795618        0.76043436463857
C           61.07848245735801       -2.70707709630969        0.33281849492414
C           59.90153572201152       -3.39431337720215        0.06573166621809
C           59.88381735772404       -4.86957546531854        0.18181885117640
C           58.98335748434559       -5.49242289958892        1.04505197758907
C           58.95831567477461       -6.87829734697980        1.16111087285155
C           58.00003721035969       -7.54119252274807        2.11335190024056
C           59.84021094769695       -7.64129585139856        0.40270907459421
C           60.74304936691056       -7.03458440511955       -0.46696043447468
C           61.69418328664190       -7.87707470975025       -1.27318822875865
C           60.76286949924667       -5.64886985079499       -0.57081333261858
C           58.73711346766606       -2.73505295913427       -0.30603943279871
C           57.51374655938838       -3.38628702735656       -0.66361262076714
C           56.56385762618299       -2.42082049382365       -0.73594746682781
C           57.21313221865773       -1.18583831772051       -0.43208407099854
N           58.55136385763176       -1.37416872430194       -0.23802404216456
N           61.28091194361778       -1.37038527747516        0.07928976701757
C           59.94714454484350        4.86302110790053       -0.47678846222680
C           60.83708279314268        5.61872461624505        0.28413871011162
C           60.84390603122283        7.00754169525357        0.19217701430536
C           61.81644628540289        7.80836563162071        1.01523216930203
C           59.95624963172811        7.63735348397443       -0.67295065101672
C           59.06124066291354        6.89617581997625       -1.44129383683971
C           58.11970144029203        7.59290938285095       -2.38595434834649
C           59.05996502766624        5.51071728022911       -1.33784292614012
H           55.53124110038522        2.55753690858658        0.57976919749903
H           57.44647041581808        4.45892793473243        0.50019454091504
H           62.44861265726428        4.31635476154748       -1.37590936070808
H           64.34362691928369        2.40026291967568       -1.22008359204775
H           64.31373599087144       -2.45719366846474        0.90793901043833
H           62.39528294449939       -4.34957177099687        1.07132009674569
H           58.30998138417131       -4.88636901494261        1.64121423266033
H           57.73233833672520       -8.53850410063234        1.76386039078045
H           58.46336649694613       -7.63888765697908        3.09780742693116
H           57.09119681119387       -6.94930806656231        2.22391217291347
H           59.82284372417313       -8.72312140596335        0.48641793410662
H           62.15970469346045       -7.29129034727307       -2.06556134364722
H           61.17222845672236       -8.72368233805239       -1.72103407133280
H           62.48239162073850       -8.27058539917961       -0.62769179627246
H           61.44917934247592       -5.16540983583147       -1.25732218335686
H           57.40523291999103       -4.44518198954357       -0.83314542419589
H           55.51468090058889       -2.52215261389916       -0.96263628315066
H           61.51383571316145        5.11850760234605        0.96821660022382
H           61.55894340310454        8.86728331332714        1.00429024762332
H           62.82597552573002        7.69507105324630        0.61431052501601
H           61.82393705884861        7.45834940030239        2.04830383253471
H           59.95756026751727        8.71978017999462       -0.75002607521900
H           57.71499980575638        8.49691831784294       -1.92952231164762
H           57.29392712196798        6.93921560077965       -2.66649998212757
H           58.65148398129707        7.88277784429742       -3.29492857409883
H           58.37855592044871        4.92168712716577       -1.94184382203597
Co          73.30009893775592        0.05545593151091       -0.07606563888969
C           69.91052854307344        0.01120407609426       -0.09416821580288
C           70.57540377213610        1.24069590855691       -0.03941460195182
C           69.91162253281826        2.50091323498890        0.06840062897076
C           70.85976765696914        3.45505743780255       -0.10075236152774
C           72.09674749818568        2.77154844598749       -0.33109687714974
N           71.91851112989882        1.41136190388839       -0.21557900035172
C           73.26436774884006        3.38257795095767       -0.76390198002999
C           74.44181774427510        2.66621553592638       -0.94341012927913
C           75.65408348085197        3.21770640745612       -1.46814651889296
C           76.61915919519589        2.28236512769169       -1.28851653159552
N           74.64830019257523        1.37703513250635       -0.51675928081574
C           75.99185168084041        1.16286239472440       -0.66128094609855
C           76.68861276589419        0.08944907980112       -0.10379874971447
C           76.02466087437796       -0.98937909957111        0.48369743528254
C           76.68613408175595       -2.08331361866292        1.12075978008816
C           75.74037503712437       -3.02643531204120        1.35397975514561
C           74.50690255546348       -2.50871783933065        0.84415774686384
C           73.34345152601293       -3.25334867279509        0.69471485968732
C           73.36806501088827       -4.69798344621456        1.01625063886097
C           72.49507614318313       -5.22432710974432        1.96759261162666
C           72.51304876302025       -6.58202009341637        2.26808643919129
C           71.58466715520845       -7.14174159632715        3.31184034556705
C           73.41065280775693       -7.41509709575412        1.60713351077949
C           74.28648950323125       -6.90553279930394        0.65252091461146
C           75.25985849418173       -7.81670744680872       -0.04526951992614
C           74.26298151843852       -5.54601612981846        0.36374581223795
C           72.16372493403375       -2.68179071949390        0.23992130444734
C           70.95000836756510       -3.40326839600846        0.00295385411915
C           69.98209851145579       -2.47931088267057       -0.21550246214497
C           70.60977699289533       -1.19962624538554       -0.12243994400737
N           71.95247176106994       -1.33043225229001        0.08994837571323
N           74.68139564037043       -1.22605488946452        0.38258049493875
C           73.26057275598734        4.83567976924109       -1.04617627891273
C           74.14063030616562        5.68067351830598       -0.37286733227596
C           74.14157224318849        7.04923191584464       -0.62664707222161
C           75.10198977185050        7.94566485906075        0.10728128888366
C           73.25805212694205        7.56786459928157       -1.56631274554595
C           72.37422980574776        6.73590784078458       -2.25033992033541
C           71.43771611286164        7.31320162176136       -3.27709749207466
C           72.37868776934323        5.37208307539281       -1.98540694642706
H           68.85520610068595        2.62336937658923        0.24582565983996
H           70.74163791117287        4.52621083404107       -0.07946848915977
H           75.74446713985414        4.19534481902651       -1.91296296758658
H           77.66618671111527        2.33555977688873       -1.54018777775392
H           77.74014753425953       -2.11434726529073        1.34551169455578
H           75.85777451805838       -3.98967786978531        1.82319583178112
H           71.80945584480489       -4.56301473041325        2.48597499870236
H           71.28228938367074       -8.15772330926586        3.05657614270466
H           72.08951424273148       -7.17156841630186        4.28012366484332
H           70.69335740595524       -6.52223352222461        3.41204692592358
H           73.42577269623233       -8.47583471349098        1.83577604170039
H           75.61331671059806       -7.37096075435397       -0.97498830465014
H           74.79715136892986       -8.77866189047182       -0.26818849240627
H           76.12441141024171       -7.99837617483323        0.59718987102312
H           74.92840383179905       -5.13983941936362       -0.39015600419328
H           70.86032277420553       -4.47738846230806        0.00763097173905
H           68.93369064071290       -2.63415197289702       -0.41391519818011
H           74.81516904750617        5.26760478788009        0.36915332765415
H           74.86491020022528        8.99577419927415       -0.06227818535405
H           76.12194835441275        7.76186060915972       -0.23680786012166
H           75.06826191699245        7.74616225553824        1.17928030628020
H           73.25407291573181        8.63379877549350       -1.76975636119210
H           70.99274217751115        8.24022824712840       -2.91342241913045
H           70.64034524408379        6.61012755954946       -3.51741940156765
H           71.98464310277001        7.53926980643479       -4.19507143552075
H           71.70618093373022        4.71220786740326       -2.52242591133106
