222
 energy: -343.614728073821 gnorm: 0.000490991818 xtb: 6.5.1 (b24c23e)
C           35.95842287397488        0.02283298301362        0.17375949069438
C           36.58790618539776       -0.11544131302750        1.40439210200776
C           35.96173903903620       -0.20608310506583        2.67831003417298
C           36.94062188832698       -0.37817361235009        3.61727035239601
C           38.19531189384051       -0.41098206341253        2.94543054344775
N           37.93307200069049       -0.22804363316112        1.61696136898203
C           39.46407511332208       -0.60652370699039        3.50500180115084
C           39.52031162824935       -0.86204412617525        4.96137211069015
C           40.27718285438860       -0.04477588036788        5.80334501730400
C           40.32212297106840       -0.26541559487399        7.16775950804300
C           39.61117599954090       -1.32519563453032        7.75045967816933
N           39.69348047765018       -1.58684623316858        9.11578662091700
C           40.16813825936809       -0.50567698264293        9.97981992444624
C           38.62243265821210       -2.39117025120248        9.70664298492360
C           38.86886458308991       -2.15854238083176        6.90017769113380
C           38.82100506557313       -1.92395850423163        5.53813299881614
C           40.66530836273675       -0.57843755113183        2.78940601165579
C           41.95446953751278       -0.90732464727131        3.36744119991839
C           42.86712564774073       -0.73285431500693        2.38839470010450
N           40.81397738426107       -0.24695510509800        1.47696216006061
C           42.13661020983132       -0.30264591860459        1.21453452155015
C           42.76823377859448        0.03037577289767       -0.00258308136644
C           42.10756195790225        0.33088489705359       -1.21029884563831
C           42.71587115781217        0.71198367008374       -2.43339006223203
C           41.73175030410228        0.84581262633184       -3.37405959973256
C           40.48848496701541        0.54918777600445       -2.75256069558188
N           40.76454719430050        0.26423409094073       -1.44120906695084
C           39.22219633712575        0.55481301973772       -3.35246628072389
C           39.18193804475341        0.77134331522070       -4.81481788480031
C           38.43859656295057        1.81146721249184       -5.37629179575575
C           38.40675736983889        2.01347969897639       -6.74401875476253
C           39.11821070249863        1.17406925036338       -7.61469970841188
N           39.04285508216572        1.33691965922766       -8.99488948505869
C           40.09660228474596        0.72057048817069       -9.80206650776272
C           38.59413866993621        2.63674011887025       -9.49518583360035
C           39.85272163571647        0.12042278696739       -7.04979101780727
C           39.88716511508795       -0.06776441853490       -5.68057385812537
C           38.01537646271728        0.37319503269533       -2.66736719344260
C           36.70856908034277        0.32820299487217       -3.30427389784021
C           35.80361209474454        0.19656651507529       -2.31277205746648
C           36.55757962396420        0.13907550616100       -1.07383235379174
N           37.88639373145138        0.23064650487345       -1.32689859712348
H           34.87338093475400        0.03238026140780        0.19901040315491
H           34.89793402806728       -0.14122986693432        2.84326860674287
H           36.80943781182813       -0.46513172818484        4.68371351952405
H           38.64228680662651       -0.18382396105765        0.89301630316730
H           40.82157307354438        0.79434839515866        5.38380937176473
H           40.92080482921852        0.40239258965241        7.77368790860711
H           39.56042392952444        0.39887058649548        9.86478965909088
H           40.12278947244625       -0.83723065921294       11.01666398149603
H           41.20775848245757       -0.27807549305617        9.74251248335037
H           37.63546294235399       -1.97168502637231        9.48248749675272
H           38.67796279916144       -3.41174861515406        9.32648675266605
H           38.75971200408105       -2.42450963656120       10.78683503872866
H           38.32472555629519       -3.00808285511611        7.29247970019228
H           38.24935140567432       -2.59445488305598        4.90534366969537
H           42.11715045679343       -1.24871635586444        4.37695098748185
H           43.93077946601491       -0.90006121376516        2.42808184011330
H           43.77191009132834        0.87388772942461       -2.56926654140712
H           41.85371435190081        1.14194553851601       -4.40315342569638
H           40.06234172607609        0.04240785335547       -0.74341372989416
H           37.89614996807381        2.49105678223027       -4.72796017623656
H           37.81703744680953        2.83721005918464       -7.12515129190848
H           39.95070802557989        0.99841636933146      -10.84532428648023
H           41.09201927304743        1.04529128097783       -9.47926334755128
H           40.02706753905079       -0.36516937371150       -9.72818070269072
H           37.55171394272273        2.79553644389868       -9.21725646678377
H           38.65840271996058        2.63779287995034      -10.58274061091957
H           39.20669872360060        3.45388837336518       -9.09829747675459
H           40.40181642498381       -0.57178999383457       -7.67505136105475
H           40.45362131530813       -0.89908592355214       -5.27456200422374
H           36.53098263541584        0.37560139011980       -4.36667138954668
H           34.72917143741201        0.12787291722750       -2.38367162013946
C           64.56640530662889       -0.10604648074367       -0.04282399368310
C           63.97536733637903        0.08800904474436       -1.28480943622945
C           64.64366109671795        0.28292598229944       -2.52519824866994
C           63.69307361368070        0.43235470471201       -3.49632495749334
C           62.41372671385862        0.32226481422429       -2.88166590367457
N           62.63497461981385        0.12399119964381       -1.54812754203321
C           61.15906460242215        0.42463571949195       -3.49476250908051
C           61.15229001218690        0.61146354192473       -4.96415300605244
C           60.55607173716942        1.73037083748992       -5.54775650967270
C           60.55238324563256        1.90785068733317       -6.91956272465127
C           61.14586273096192        0.96356836964645       -7.77034416482119
N           61.09502501274121        1.10209323849227       -9.15521510811468
C           60.78150767522928        2.42743809772612       -9.68907452433374
C           62.09469290634838        0.37009088890646       -9.93528489672879
C           61.73301375902331       -0.16679228792240       -7.18222523385349
C           61.74012801341915       -0.33150151889945       -5.80912992617332
C           59.93297635186421        0.35948659249242       -2.82684764080206
C           58.64811804366452        0.42432739730393       -3.49749321423262
C           57.70941748140100        0.32929401438443       -2.53324998248360
N           59.75109097622516        0.20602529700347       -1.48520852607766
C           58.41783784113071        0.18675247025387       -1.27803973425797
C           57.75326843615187        0.04820729591260       -0.04116761596794
C           58.37417109059601       -0.11845680684106        1.21264889065092
C           57.71997202255026       -0.23704997904100        2.46590175939031
C           58.67657259886719       -0.37448837210277        3.43345764129090
C           59.94807363539752       -0.36277552372708        2.79785004620147
N           59.71376919076985       -0.19898875138255        1.45728652728234
C           61.20125698228220       -0.47310209605551        3.41273644042658
C           61.21204143907667       -0.65133410438451        4.88234308109953
C           61.86623540176450        0.26392851039207        5.70907463651298
C           61.87210492237446        0.11307012182660        7.08374784212889
C           61.22349969788160       -0.97168004624973        7.69268451332690
N           61.27158485396201       -1.16168324607967        9.07093601293979
C           60.24171389425821       -2.01594191579917        9.66446326665589
C           61.63793852169297       -0.01147005364672        9.89741588467149
C           60.58303115268274       -1.90068315074063        6.85873675812880
C           60.57373242130173       -1.73649094450832        5.48556657912881
C           62.42871565698505       -0.42633424586726        2.74192879039090
C           63.71844503765701       -0.61640188342598        3.38714969521781
C           64.65071269258758       -0.51057757592951        2.41843533336669
C           63.93123742640176       -0.26866625265147        1.18121047213201
N           62.59555766136910       -0.23211273654547        1.41241892891224
H           65.65145216748539       -0.13370749053050       -0.03841997164008
H           65.71506551892308        0.31147118349224       -2.64505904986162
H           63.85902950107109        0.61460184397618       -4.54576488101320
H           61.90210452148774        0.02667098512538       -0.85340435656081
H           60.10648725447884        2.48734141478942       -4.91427645626098
H           60.07891245650563        2.79591648952484       -7.31782210660816
H           61.49105507596199        3.18395560360028       -9.33534174638022
H           60.81630893774022        2.38579095328332      -10.77729094227338
H           59.77070711149291        2.70994445555356       -9.39360807953240
H           63.11074788204402        0.58322957620247       -9.58532582979877
H           61.90371156030875       -0.70123474362078       -9.86406815019125
H           62.00895444676965        0.66028360010827      -10.98179992197390
H           62.18367580888928       -0.93870637305171       -7.79280812041144
H           62.18936164652049       -1.22308307396181       -5.38477769417592
H           58.50158925971282        0.51499333219825       -4.56149464733403
H           56.63776479984642        0.34880949681418       -2.64021832197158
H           56.65222546994007       -0.21702587913376        2.60550788220266
H           58.51597696633455       -0.46613069321663        4.49519090781934
H           60.44139236950694       -0.13625067187472        0.75285632953913
H           62.35914283913183        1.12369225479298        5.26821235182793
H           62.39054730812748        0.85545304390406        7.67665789826004
H           60.34161593390236       -1.98911281909884       10.74894630953594
H           59.23545276970396       -1.68231218796428        9.38786165783078
H           60.38543328329465       -3.04598785009985        9.33647459840084
H           62.66607250754161        0.28059583814145        9.68152819628788
H           61.58141122147589       -0.29909709729366       10.94676125121524
H           60.97132743369352        0.84035926665319        9.72189034379135
H           60.09013145711424       -2.77063447006377        7.27340749876586
H           60.08203503779040       -2.47936754593478        4.86665521582259
H           63.86624154576806       -0.82048470912584        4.43546633044136
H           65.72323398996345       -0.59466520344440        2.50074619811436
C           44.17665130309940        0.06338795156068       -0.02424118660907
C           45.39473949952697        0.10052182540643       -0.03662246541387
C           55.12563219483919        0.10038045353760       -0.04643011222613
C           56.34403427909785        0.07712715592925       -0.04685633535807
C           46.80271697545401        0.13050052546642       -0.03916830864538
C           47.43957741270591        0.13098342388692        1.21808801242417
C           46.80861729468921        0.09016771342231        2.48652728094422
C           47.78298934920373        0.13743862374896        3.44597627600054
C           49.04015290108724        0.22774142491316        2.79028345093877
N           48.78267555202109        0.20556617070690        1.44495690712902
C           50.30025680309785        0.33267955154888        3.39441841533936
C           50.31976818388561        0.39064295691213        4.87385439570410
C           49.63271459543737        1.38485474336644        5.57278640712719
C           49.64264961583705        1.42605988661372        6.95504910635761
C           50.33290199986811        0.45909034216331        7.70146052217300
N           50.37424635765228        0.52542098166239        9.09204320821326
C           49.29199455927584        1.25444601512631        9.75608471106603
C           50.80525025866816       -0.67401254954198        9.81037717468332
C           51.03481342392050       -0.53028452381613        6.99698457135800
C           51.02783544608950       -0.55789567523099        5.61443189463097
C           51.52418231625725        0.37950106426531        2.72207027260967
C           52.79420278467180        0.61169819931525        3.38456643474650
C           53.74124200590550        0.55709290905330        2.42445211285893
N           51.71834396945518        0.22116206516067        1.38416143264922
C           53.05059484764831        0.29596612824608        1.17965973790000
C           53.71763253466231        0.12312515395710       -0.05059298733621
C           53.07875093815900       -0.02307504266504       -1.29827168273487
C           53.70204986375600       -0.24811062821288       -2.55067165812059
C           52.72777833760015       -0.26246450144168       -3.51181986119973
C           51.47816161081241       -0.04651339292999       -2.87205246413716
N           51.73805720524942        0.07179141282983       -1.53301221563661
C           50.22093451694028        0.02380596104605       -3.48863342024020
C           50.22020976614972       -0.00442951749876       -4.96941988823390
C           50.91509841541676        0.96255769163608       -5.69880871751898
C           50.91807388346894        0.95394794320632       -7.08137753836964
C           50.23455333610000       -0.04010586052980       -7.79773697978432
N           50.19687584305407       -0.02074715669421       -9.18942165907850
C           49.79273966302991       -1.25144968537486       -9.86949227498270
C           51.25918562336038        0.71507594057105       -9.87702990993332
C           49.53473376822129       -1.00910787007676       -7.06312724557620
C           49.52789573216636       -0.98619247551059       -5.68012699809650
C           48.99480399235910        0.11881641513270       -2.82754346257141
C           47.71901815676411        0.23130461421683       -3.50981490659639
C           46.77201480566976        0.24176526323589       -2.54866521639918
C           47.46839769776923        0.16090307029498       -1.28230755514336
N           48.80204726923328        0.10280032474470       -1.47906029452852
H           45.74463796636036        0.03377629833092        2.64272944666063
H           47.64171762599130        0.10362801565506        4.51378512411273
H           49.49173016399156        0.23248460136900        0.71988970149994
H           49.10042973413037        2.15423686803741        5.02381372254599
H           49.10966664509740        2.22969576776069        7.44678440807001
H           49.39250188994822        1.13221390906248       10.83393546099741
H           49.37072151839569        2.31762256975865        9.52694265305966
H           48.30914081309606        0.88562470698246        9.44252023360042
H           51.84363570914024       -0.89496997002645        9.56210490368351
H           50.17839337453876       -1.53878198232661        9.56508686322560
H           50.74724288452325       -0.48268545876149       10.88146611218036
H           51.59520927908585       -1.29448687463827        7.51986430831500
H           51.56295858465528       -1.34692192431947        5.09715122766198
H           52.92228269316469        0.81321182131051        4.43577163093129
H           54.80457179292216        0.70050762912404        2.52380211796275
H           54.75937187289064       -0.39367938193738       -2.69397145793338
H           52.86148510007020       -0.42563890682955       -4.56871132019033
H           51.03299510295106        0.20685332993256       -0.81631812509021
H           51.44388784103661        1.75017530595698       -5.17267372378439
H           51.45554841192661        1.73961923980585       -7.59659322090737
H           50.42846373219363       -2.09715547768582       -9.58427782594129
H           48.75426870181268       -1.47882119382395       -9.62710948998584
H           49.86299031101686       -1.09855447265576      -10.94596057267695
H           52.25190240795642        0.37649311018520       -9.56041975223787
H           51.15577517210541        0.56421796426215      -10.95098891790204
H           51.15746816367390        1.78160321678802       -9.67371334760215
H           48.98449064219121       -1.79559037697942       -7.56331308032109
H           48.99409032910434       -1.76050765063649       -5.13989311615193
H           47.58444769888401        0.30487249939908       -4.57673464353652
H           45.70290164083894        0.30699060333019       -2.66398622993690
