372
 energy: -614.022613668665 gnorm: 0.000374228269 xtb: 6.5.1 (b24c23e)
C           81.95508146597687       -0.00216804558610        0.16915703470097
C           82.57148600089518       -0.89130042292980        1.04020285618704
C           81.92794236288006       -1.80645943356060        1.91934876561050
C           82.89711994990382       -2.49347883014464        2.59523808347452
C           84.16420844215118       -2.01081404601412        2.16040599475361
N           83.91656962601557       -1.05323038310443        1.21745301356788
C           85.43086169240387       -2.43110549008912        2.58192299210314
C           85.47186152531665       -3.47618003398457        3.63267095178958
C           86.08637517840587       -4.70666077737778        3.38753866104176
C           86.12530943489493       -5.68718217111018        4.36274584771207
C           85.55984140308477       -5.45024283024382        5.61823417438189
N           85.56400225077925       -6.44226536072479        6.58408930111425
C           84.93820842514090       -4.22456396072822        5.86965581908674
C           84.89522489274505       -3.25297650268101        4.88520994326398
C           86.64269305474035       -1.93936819494216        2.08822811705971
C           87.94182949525235       -2.34731567790277        2.59006931208575
C           88.85947820717848       -1.66093409265042        1.87774332599908
N           86.79370994798587       -1.01036825836566        1.10437048826973
C           88.12182736371004       -0.82680067593151        0.95024852101409
C           88.75458950561114        0.02219721242010        0.02017602344027
C           88.11025831586302        0.86053759245188       -0.90911850427686
C           88.74225554548306        1.69327029720867       -1.86924226327554
C           87.76753235487278        2.35458968709751       -2.56398908516916
C           86.50770836613312        1.95827358833644       -2.03710833411907
N           86.76630042497675        1.04673573133043       -1.04719787934462
C           85.24250485096260        2.39440231174369       -2.44764185993189
C           85.20176501719995        3.41154221250539       -3.52444457852411
C           84.54519101887017        3.14547914229322       -4.72870182515815
C           84.50664167701520        4.08909292556556       -5.73973331109789
C           85.11483977980663        5.33411150631178       -5.56043787448340
N           85.11159569031584        6.26655298082652       -6.58405811148714
C           85.77691961434876        5.60699035178833       -4.36080437563733
C           85.81894239621853        4.65391220156093       -3.35859498265633
C           84.03031232811036        1.94416372998398       -1.91323193253857
C           82.72597971926965        2.45784549287914       -2.30109292657199
C           81.81585275056412        1.78484567298673       -1.56797345849734
C           82.56344793045660        0.86908091287796       -0.72519448143808
N           83.89342244172073        0.99874551821757       -0.95329577347505
H           80.86998195452404        0.00354751708025        0.19499151739224
H           80.85920492586691       -1.92107343189484        2.00727843883109
H           82.75229738508891       -3.27371905484822        3.32479920415844
H           84.63687977665630       -0.54481953134437        0.71559657901680
H           86.52050295832868       -4.90086742838459        2.41290324706681
H           86.59617036330366       -6.64223961916405        4.15684715841268
H           85.45460298948231       -6.11415983974679        7.53042607427554
H           86.28604059623520       -7.13668757723985        6.47606770668176
H           84.49425489395355       -4.03604911991342        6.84111453624905
H           84.42846563838972       -2.29673015302267        5.09549621185981
H           88.10920995467806       -3.05201702729119        3.38847050849380
H           89.93386827985988       -1.70116279875456        1.95516519917061
H           89.80808892127202        1.77012796191321       -2.00816826906979
H           87.90731692243097        3.04941799387644       -3.37588989184205
H           86.05085237781239        0.57759445847281       -0.50162819661839
H           84.07863678814395        2.17806538514212       -4.87902142398373
H           84.00360518568893        3.86622833453331       -6.67439674922504
H           84.36660351348031        6.15893645356901       -7.25386158814195
H           85.25934384526512        7.21916346612880       -6.29092042136441
H           86.25338738148216        6.57059623957416       -4.21669094259306
H           86.31736335545114        4.88179783620284       -2.42262436898290
H           82.55478268852350        3.23841275348460       -3.02499997428133
H           80.74141480840009        1.88347816198504       -1.56844434708341
C          143.23784602659802        0.09468980622201       -0.09667432051554
C          142.63015815334523        0.73666454157761       -1.16823008173946
C          143.28260151206857        1.35196661758944       -2.27274973920184
C          142.32132559446819        1.87466477716502       -3.09206125629594
C          141.05085685003087        1.60634216565860       -2.50806006023887
N          141.28785033586595        0.90810875426472       -1.35747961027863
C          139.78929071030620        1.96677920263438       -2.99655797229636
C          139.75784159196732        2.76304619484783       -4.24571640607602
C          139.08633850222245        2.28718338124627       -5.37489972397122
C          139.05584835212471        3.02352606205843       -6.54564038237165
C          139.68807949217623        4.26796862488882       -6.60794089738899
N          139.69248136017796        4.99043555231166       -7.78895525969649
C          140.36576213793990        4.74929643260217       -5.48496046832612
C          140.39917471558260        4.00196386671700       -4.32091494737089
C          138.57394237472920        1.63398880388530       -2.39114302929002
C          137.28235665057761        2.09550962601518       -2.86538031268086
C          136.35903402371954        1.56885898913236       -2.03379484604138
N          138.41413890806339        0.86307211501986       -1.28018303789228
C          137.08686934050598        0.79307746684260       -1.04948646366997
C          136.44569062781565        0.08272507566169       -0.01439689312860
C          137.07949389419497       -0.63093733598345        1.02045207373077
C          136.43646723349812       -1.39525738526760        2.02900005148368
C          137.40277995473681       -1.92402340100727        2.83982108645426
C          138.66756927668371       -1.49200916454532        2.35453876078723
N          138.42067432063729       -0.72239091828836        1.24811271907877
C          139.92845959600973       -1.80185238247095        2.87818469580146
C          139.95730918309849       -2.61538653494998        4.11546279997914
C          140.61659256442260       -3.84716724620753        4.14234893696910
C          140.64224817373838       -4.61372708435062        5.29364297143626
C          140.01770306047280       -4.15444763446117        6.45607302113389
N          140.00815806217457       -4.93613401578846        7.59876195859874
C          139.35221852800470       -2.92609927396757        6.43686497202963
C          139.32315219530307       -2.17031340951441        5.27829192507404
C          141.14548540515051       -1.40251975001485        2.31430183481223
C          142.44767228664961       -1.67494366193710        2.90203833392013
C          143.36375631050004       -1.14670576584005        2.06495629093514
C          142.62212755717158       -0.54127661496138        0.97358060330186
N          141.28963441446825       -0.70404980972850        1.16305199193415
H          144.32327279576961        0.09443359748199       -0.10532483223214
H          144.35137322284265        1.37820132966453       -2.41456844493063
H          142.47403811291773        2.39222482646141       -4.02522668453177
H          140.56206353897670        0.56210665279944       -0.73882209703876
H          138.60067787770765        1.31825565020929       -5.33709807409763
H          138.54019980196202        2.63826261663971       -7.41853624106913
H          139.86105107732675        5.97802985470622       -7.68234158918901
H          138.94035727076533        4.77264391193191       -8.42299381869340
H          140.86073145113747        5.71341469903463       -5.52798170074224
H          140.90931899377014        4.39323733366263       -3.44733846619194
H          137.12452001394715        2.75013403462343       -3.70724191656861
H          135.28847423851013        1.69504640154128       -2.05467732270202
H          135.37026047829062       -1.53055502844792        2.11012009005812
H          137.25471028293651       -2.56951443640743        3.69010179699315
H          139.14273469277026       -0.29814082626255        0.67525209488833
H          141.09467252004146       -4.21570142510127        3.24138340924739
H          141.14745325268674       -5.57342808999261        5.29829671209544
H          140.75328170984423       -5.61181794655055        7.65735987922644
H          139.84798103221729       -4.43273020535027        8.45670497058656
H          138.86267420355463       -2.56564092657858        7.33507841901316
H          138.82162323621804       -1.20859065143304        5.27805108522128
H          142.61419801952817       -2.18683624280295        3.83631123983616
H          144.43889657652880       -1.14294550990075        2.15558059727117
C           90.16476263774499        0.04242734319246        0.00817341655786
C           91.38195498290294        0.06710856636706        0.00230519621631
C          101.08301436645560        0.13489699528115        0.01664318661565
C          102.30171849432797        0.12443936791947        0.01580418727730
C          111.99760316286800        0.03155166312611        0.01720405219911
C          113.21656169721139        0.03101348101497        0.01664776441122
C          122.91159978516379        0.04287105773520        0.02021573983074
C          124.13032686540801        0.04546722627989        0.01809667396140
C          133.81954053401529        0.06585395615554        0.00989858939553
C          135.03689711970094        0.07666715885998       -0.00332924972489
C           92.79113639546830        0.08824819365473        0.00563644620410
C           93.42062807658540       -0.17959988424842        1.23647912366037
C           92.78104969824669       -0.48946317539123        2.46358525222837
C           93.74909213920350       -0.63232609342626        3.42021757055389
C           95.00923383294810       -0.39624845056958        2.80766185411085
N           94.76121392181093       -0.14332571836673        1.48468839775013
C           96.26599168200947       -0.40068518788058        3.42743312959463
C           96.28269428328296       -0.63768663394819        4.89027968370887
C           96.99102099039854       -1.71830339336309        5.42271608700100
C           97.00533638013833       -1.95598397847584        6.78531849169398
C           96.31966114637662       -1.10208692147083        7.65307251248839
N           96.29819002543486       -1.35974553371474        9.01317933428932
C           95.60765926316235       -0.02006955574218        7.12923914401270
C           95.59054100959379        0.20462267600293        5.76402348514509
C           97.48840307344076       -0.20446712070016        2.78107573180221
C           98.75885875733363       -0.10482821133454        3.47517008709254
C           99.70333243486938        0.04950678889764        2.52332466042718
N           97.67991056275517       -0.08028409823755        1.43830668273992
C           99.00960156248517        0.04822095304696        1.25231782428864
C           99.67658989185965        0.14049830225068        0.01279883296224
C           99.04568039885157        0.23572749910557       -1.24378174025155
C           99.68195558619945        0.26428140731219       -2.51022201625055
C           98.71346964130650        0.40886310974856       -3.46644549420469
C           97.45560457761874        0.47679715966396       -2.80945905254744
N           97.70565993443809        0.34985102018116       -1.46884766257499
C           96.19855313695480        0.63687265728157       -3.40757445729590
C           96.18991851437558        0.84740582377399       -4.87466587616721
C           96.86419968529924        1.93166006814338       -5.44223394571739
C           96.85330306394043        2.13747423286008       -6.81034255773342
C           96.16683375578287        1.25343857685685       -7.64664309878181
N           96.19323016509860        1.42863192411057       -9.01971724145546
C           95.50347447942573        0.15756914282675       -7.08875157654912
C           95.51077373923586       -0.03488550528945       -5.71881771198700
C           94.97300995001669        0.60798149910070       -2.73819683598153
C           93.69454347572146        0.83903238563959       -3.38539790464703
C           92.75030342550126        0.68028558610422       -2.43440557913956
C           93.45219766310440        0.36952073081797       -1.20621308496439
N           94.78550789766511        0.35004752396157       -1.41464948446943
H           91.71608601278110       -0.58900966382634        2.59389918653830
H           93.60267047634902       -0.88676901600334        4.45714786191581
H           95.47632719345241        0.03874550211793        0.78851679599672
H           97.51842448954422       -2.39034155948665        4.75464260992567
H           97.54904833887383       -2.80510488152355        7.18486592129448
H           97.06702607420327       -1.91571997752409        9.35231924800924
H           96.08547294341726       -0.56391329512080        9.59331557121365
H           95.07209167523682        0.64529280472749        7.79766850429377
H           95.05221900173501        1.05903790033361        5.36833251340251
H           98.88839149147701       -0.12780315909192        4.54516591465588
H          100.76666073723530        0.17428807199553        2.64796047638370
H          100.74394980914441        0.17190384637715       -2.66626815256591
H           98.85640606298101        0.44924997530350       -4.53389183808201
H           96.99168903472545        0.33292678194413       -0.74843712366055
H           97.38354927125310        2.63329354672009       -4.79846466195417
H           97.37339507207270        2.98788184888188       -7.23774797254492
H           95.43877886247452        0.98522256777803       -9.51908456595301
H           96.38428852541922        2.36979905614649       -9.32439778990451
H           94.98191100317159       -0.54056624989742       -7.73435260304872
H           95.00120223024868       -0.89295265554877       -5.29445901771243
H           93.55786133069968        1.09983499148520       -4.42240191035089
H           91.67997565497635        0.76353435238051       -2.53215779248810
C          103.70780360183741        0.10916061480087        0.01912105243522
C          104.33623735942135       -0.28899109122919        1.21648848839452
C          103.70042072348326       -0.75363830597468        2.39485068868764
C          104.66796036018260       -0.97370148917772        3.33826820055015
C          105.92374630288455       -0.64160828428526        2.76357211894376
N          105.67496367500028       -0.25705428254149        1.47284459801777
C          107.17788451244439       -0.66824575396261        3.38942545607570
C          107.19247453418214       -0.99916956690746        4.83259972043267
C          107.94761089432573       -2.07584890592737        5.30622666612060
C          107.96280305243805       -2.39553654986976        6.65181592687415
C          107.23071142918683       -1.62965907168132        7.56282798003102
N          107.21271964572510       -1.96950378204858        8.90460852426450
C          106.47044371325323       -0.55337464037039        7.09809741073381
C          106.45272557271109       -0.24691046950063        5.74912949638906
C          108.39874683483329       -0.40991231047392        2.76155558739357
C          109.66516671208331       -0.32022425406995        3.46396929272064
C          110.61101751764070       -0.11777339241533        2.52219342408254
N          108.59298983910406       -0.22762489379977        1.42585797950139
C          109.92227959965501       -0.08203176651594        1.24932276676823
C          110.59179606001403        0.03814723947194        0.01338543768351
C          109.95996663275585        0.16310532333841       -1.24082474353082
C          110.59058875037462        0.19485593373594       -2.50956364127160
C          109.62273053185253        0.39244764996496       -3.45769724869105
C          108.37213899673438        0.49460358418895       -2.79216968297239
N          108.62343055667534        0.32387350642836       -1.45668663285443
C          107.12081358999397        0.74988497916288       -3.37034271486564
C          107.10593228198775        1.02857706688881       -4.82448073125685
C          107.86598923172049        2.07015476243265       -5.36353133246354
C          107.84649765002250        2.33471347476148       -6.72133228678963
C          107.06401474134445        1.55463850897373       -7.57664209091432
N          107.07855202572659        1.78561162272160       -8.94146749288790
C          106.31222444371549        0.50194838631462       -7.04830450058217
C          106.32935884120674        0.25100117041287       -5.68825682804401
C          105.90289371810907        0.76034456148908       -2.68624039424053
C          104.64153467390332        1.15068411237086       -3.28786607901836
C          103.69577279259033        0.97518105890751       -2.34060833407179
C          104.37979177468154        0.48230987102401       -1.16368294414648
N          105.70673267778432        0.39399076483175       -1.38924036212632
H          102.63977654903410       -0.91154249770089        2.49938714674625
H          104.52455567456465       -1.34709332757075        4.33902608591722
H          106.38920442715711        0.00565874758628        0.80216600495095
H          108.51098055347475       -2.68084509483708        4.60432799384410
H          108.54350257535140       -3.24079985435790        7.00475531319395
H          108.00451287407817       -2.50836578193164        9.21737894824187
H          106.95752467549393       -1.22158473798904        9.52957685366756
H          105.89848499829480        0.04361775718579        7.80011800575535
H          105.87697063889972        0.60362952658339        5.40055198831183
H          109.79137858230555       -0.38056401188329        4.53292653024695
H          111.67223768087301        0.01517217957696        2.65567748142442
H          111.64779302437765        0.06778545512709       -2.67359482977195
H          109.76233134501496        0.44780432204952       -4.52491778383956
H          107.91223116312020        0.31244357805514       -0.73349042522902
H          108.45933101659840        2.69476030076395       -4.70455812484352
H          108.43420533838729        3.15162653720229       -7.12584631514925
H          106.27590274261797        1.43590585133629       -9.44014383745071
H          107.35106042191659        2.71700774389288       -9.21235208691598
H          105.71448812757710       -0.11624863766563       -7.70920661712679
H          105.75026108774617       -0.57348544797599       -5.28709707834436
H          104.51881939889128        1.52855592184687       -4.29005762667470
H          102.63796188603646        1.17185659516147       -2.40486814422429
C          114.62239954732796        0.03204517096999        0.02006001598872
C          115.25590523883605       -0.34869638468054        1.22064291528543
C          114.62594493283773       -0.81044312524383        2.40316716503090
C          115.59527612872557       -1.00339403957993        3.35070989505768
C          116.84640936830228       -0.65830780521547        2.77377539145627
N          116.59361648029804       -0.29308102502222        1.47821565395589
C          118.09990494054648       -0.66009482210522        3.40158520320648
C          118.11545155534286       -0.96783910172222        4.84992283671063
C          118.88001819141446       -2.02900343327689        5.34288764563239
C          118.89682594920352       -2.32483665229148        6.69391753519546
C          118.15685490841230       -1.54986381614967        7.59077921164852
N          118.14147951290914       -1.86585303800703        8.93843624517741
C          117.38639139839744       -0.48955950892615        7.10655262359700
C          117.36703707270919       -0.20714279165519        5.75235911066344
C          119.31843546201054       -0.39801260040128        2.77102761203166
C          120.58491497746923       -0.29234307994583        3.47121930514290
C          121.52883592535281       -0.09552484047669        2.52631936252291
N          119.51022219892883       -0.22848040179144        1.43326961386351
C          120.83826511865888       -0.07600819419712        1.25392600950768
C          121.50548814862034        0.04309648055015        0.01683168360549
C          120.87294585697731        0.16306076387486       -1.23720845661971
C          121.50414106626347        0.20302419285894       -2.50555355193818
C          120.53482857206184        0.39116099299318       -3.45406725668118
C          119.28257010287021        0.47823175425404       -2.78941308493715
N          119.53483628702730        0.30963830924210       -1.45386930265272
C          118.02838961183579        0.71687191493540       -3.36873123161085
C          118.01184607648374        0.99650623801325       -4.82265907083949
C          118.76034254258201        2.04762874635493       -5.35949350598301
C          118.74123715487686        2.31243191224392       -6.71722298911480
C          117.97061016289557        1.52315465563317       -7.57488385807457
N          117.98685277522461        1.75407565899303       -8.93960948439847
C          117.22967787058919        0.46172776248644       -7.04867548542648
C          117.24655809338822        0.21029252699438       -5.68869264560816
C          116.80975936403715        0.70927303130438       -2.68588437852346
C          115.54309862707238        1.07949728862802       -3.28898112663407
C          114.59931239013518        0.89041881947819       -2.34234690667587
C          115.28983120934835        0.41020869918812       -1.16400680229128
N          116.61801568670269        0.34158175687150       -1.38843909857872
H          113.56793766467389       -0.98466208151907        2.50786592505282
H          115.45637852820910       -1.36689795331843        4.35574299582230
H          117.30460957062773       -0.02592415773333        0.80585924334641
H          119.44965956126521       -2.64092728724903        4.65215751336376
H          119.48508225155361       -3.15824991043975        7.06219471819673
H          118.93821525629311       -2.39164608450315        9.26081913874503
H          117.87938948926158       -1.10919738427461        9.54991045069496
H          116.80786231713088        0.11405699451591        7.79744186087601
H          116.78292927491351        0.63111878036346        5.38824637341889
H          120.71244772249698       -0.34010544474943        4.54065036215618
H          122.58955997485866        0.04461077008253        2.65715680264828
H          122.56292425885987        0.08836993899073       -2.66890121586163
H          120.67461750144311        0.44937796588794       -4.52110958539281
H          118.82306458782503        0.28944063467283       -0.73142333061557
H          119.34436882805259        2.67914237654850       -4.69878288984737
H          119.32019822905397        3.13644523885124       -7.11994693005441
H          117.19037647113026        1.39480155564421       -9.44129672777947
H          118.25041174478318        2.68808623350858       -9.21024635844912
H          116.64081536915548       -0.16314793115830       -7.71126235281932
H          116.67648622501302       -0.62140649921594       -5.28950410324375
H          115.41521102295438        1.45421470549425       -4.29170684947542
H          113.53864840807478        1.07044651311157       -2.40790593593213
C          125.53670115508592        0.04742449031453        0.02074923415195
C          126.16922545562603       -0.37709314385160        1.20667571504504
C          125.53498697172085       -0.87389625214713        2.37297701449301
C          126.50374776618061       -1.12109993141699        3.30803061223908
C          127.75929770674034       -0.77632598530452        2.73991727979321
N          127.50843355590854       -0.35238390531194        1.46187610994056
C          129.01529053455226       -0.84125340294371        3.35884613588414
C          129.02856251496084       -1.22374926259361        4.78978280968525
C          129.75574872363188       -2.33537551837936        5.22397251465459
C          129.76977499503622       -2.69743510267786        6.55897353718456
C          129.06459057272508       -1.94074100544173        7.49839786459257
N          129.04560882254194       -2.32149767945904        8.82922130697021
C          128.33089980406291       -0.83049557490792        7.07259633231550
C          128.31413309240511       -0.48141662059286        5.73400370874015
C          130.23705755113178       -0.57486463773171        2.73615066880318
C          131.51192413175016       -0.55652512991518        3.42978138359783
C          132.45311151014948       -0.30906646808425        2.49434044638202
N          130.42223384685309       -0.30900459585271        1.41379870430419
C          131.75197480711930       -0.16839340898178        1.23473463193976
C          132.41176018601615        0.06032222560210        0.01087788367195
C          131.78230886668828        0.28465685757300       -1.22879993156745
C          132.42054871350905        0.43486645904813       -2.48611729864020
C          131.45217248602125        0.66587725368627       -3.42556265172270
C          130.19388159423005        0.67323180910847       -2.76573276314870
N          130.44261974519671        0.41883647954549       -1.44328312441073
C          128.93634692034698        0.91014206675556       -3.33696276160654
C          128.91558462769680        1.25316422701796       -4.77771794939836
C          129.62590423041368        2.35297285695822       -5.26593010881171
C          129.60463271946054        2.67109983653976       -6.61229222979466
C          128.87052897150608        1.88770196011313       -7.50652852392745
N          128.88691119334135        2.17275412652611       -8.86108933326460
C          128.16724027721779        0.77889513993297       -7.02869805496055
C          128.18555671048588        0.47409885829161       -5.67968946140919
C          127.71661989085580        0.84377228306465       -2.65922270547299
C          126.44467722201135        1.21456043181488       -3.25086288164340
C          125.50344736458131        0.97844790981234       -2.31250283275100
C          126.20057836756115        0.46715449781119       -1.15091270729718
N          127.52965455313763        0.42413213853801       -1.37709262164118
H          124.47429885323739       -1.03334558375540        2.47492770009705
H          126.36193823618527       -1.52156414610656        4.29850506957819
H          128.22191759076480       -0.06866374069579        0.79894659617504
H          130.29802020582622       -2.93341255017137        4.49985170341343
H          130.32902911479673       -3.56891159066393        6.88151071182266
H          129.82410201381475       -2.89146384943865        9.11942307597973
H          128.81548280939830       -1.58640244695844        9.47866700562181
H          127.77903386784941       -0.24081765103328        7.79654042146041
H          127.75886506999406        0.39418341488881        5.41549235130323
H          131.64712449276479       -0.69380505186221        4.49048115390483
H          133.51894940031096       -0.21004022281635        2.62408427806276
H          133.48343592975320        0.36073239980009       -2.64838491136910
H          131.59638893620959        0.80473856972562       -4.48452663297113
H          129.72740097160269        0.33082635318432       -0.72931325293292
H          130.18155510476308        2.97896900794089       -4.57614460233198
H          130.15401295874955        3.53201041031006       -6.97751663762132
H          128.10831357432832        1.80272191512216       -9.38268685721049
H          129.11457501103234        3.12651307809587       -9.09263657895232
H          127.60674961126779        0.15911142450980       -7.72004632084185
H          127.64466214568746       -0.39336053810863       -5.31770871375942
H          126.31217153001103        1.62161906317827       -4.24029451972376
H          124.44015722827788        1.14446740653116       -2.37295920127711
