229
 energy: -356.353700376131 gnorm: 0.000620611027 xtb: 6.5.1 (b24c23e)
Co          33.03652135491387        0.07323893110258       -0.07869988076524
C           29.65039571561248        0.19278611612520       -0.28281046785406
C           30.29956023138939        1.20038762008892        0.39620446496069
C           29.61939763040326        2.28632721315319        1.03463628842227
C           30.57626705307848        3.10543697946285        1.52911763972553
C           31.83858369561193        2.52253479926511        1.18023358253901
N           31.66002025581386        1.33658845337152        0.51437383258654
C           33.05327287628732        3.14854044233179        1.40674336176652
C           33.05813244188953        4.49417767032829        2.04581567625140
C           32.90650580440847        5.63793015614408        1.25621666315838
C           32.74359771870062        5.50726499939124       -0.23474332699632
C           32.90706055336165        6.88930199010473        1.86086054436355
C           33.05454182283963        7.01773800986499        3.23814747883456
C           33.07039660816878        8.37963108116100        3.87816386739848
C           33.20773026460004        5.87270748033373        4.01314395582943
C           33.21122269150400        4.61095989175428        3.43000904339386
C           33.37740140962121        3.37513156897211        4.27342816323685
C           34.25854048067276        2.58434846853678        1.02930842129887
C           35.52056348746768        3.23579709567425        1.21017694362732
C           36.47012805678313        2.36673908683691        0.79055875585985
N           34.43122822795818        1.33167091010800        0.48560240180838
C           35.78510125284426        1.18726636441753        0.36272715698182
C           36.45050819379948        0.03243101602157       -0.05121887455920
C           35.76532000181948       -1.12327205998042       -0.42983204341285
C           36.42711416599006       -2.34252167869097       -0.77431148956248
C           35.45950027318035       -3.22611951378362       -1.11515389626053
C           34.21113268165200       -2.53545378960765       -0.99330805315841
N           34.40907343706720       -1.24981976595452       -0.54166902933196
C           33.00281772623423       -3.08062221271733       -1.38759148956812
C           32.97890751736349       -4.46768852451125       -1.93038741413075
C           33.19205100827217       -4.68946337726209       -3.29441077072984
C           33.45314493896903       -3.52602178622708       -4.21347212280907
C           33.15948718113636       -5.98811046770285       -3.78710661459043
C           32.91912025254292       -7.06802393960581       -2.94244084913031
C           32.87039757082547       -8.46529021592345       -3.49918687689807
C           32.70898272448552       -6.83509723257113       -1.58799902752852
C           32.73611243116447       -5.54386756349194       -1.07290953386029
C           32.50518099243926       -5.29766689787099        0.39417806092978
C           31.81313836963723       -2.37389931727048       -1.31836709308586
C           30.56114899781864       -2.89153834493022       -1.78644525442218
C           29.62260855340817       -1.96026357538644       -1.49855448664105
C           30.30178827003374       -0.88342287507466       -0.84354015994198
N           31.64989713700457       -1.13006419965863       -0.76482024344676
H           28.57036265237868        0.23711603495304       -0.35942603397539
H           28.54699993584216        2.38899333736915        1.08463994837584
H           30.45986829535271        4.02870329454755        2.07353989921736
H           31.82992992858354        4.95741117770555       -0.46889489347028
H           33.58317420539649        4.95581636325814       -0.66179499773952
H           32.69109954564082        6.48735328137236       -0.70785692638987
H           32.78856320691911        7.77730134300938        1.24855831431555
H           32.68766683081279        8.33430476290584        4.89801973050434
H           34.09365242279387        8.76062576183689        3.91602851413529
H           32.46737714194651        9.08477296172343        3.30557075143332
H           33.32400639111423        5.96369266539640        5.08816008261333
H           34.28797170700766        2.84392221337870        3.98944084785457
H           33.43821776395480        3.63038796644123        5.33091607098967
H           32.53545591487068        2.69686037912848        4.12352449057084
H           35.64438086848542        4.22916229564613        1.61013156559564
H           37.54090660960667        2.49120383646212        0.77464973991951
H           37.49540422628595       -2.48576200710067       -0.75033417666984
H           35.56303521602072       -4.25061182682202       -1.43418512380819
H           32.63317362525225       -2.80761611605294       -4.15888030097062
H           33.55746066392184       -3.86067279238773       -5.24510912986634
H           34.36894855596984       -3.00959613809147       -3.91940447068920
H           33.32398878699676       -6.16190639487783       -4.84553034636908
H           33.68436500480710       -8.62618297653037       -4.20724992147976
H           32.94482501751484       -9.20596374349542       -2.70302251417563
H           31.92777708659512       -8.62332857920009       -4.02804535303417
H           32.52109080177022       -7.67052116811215       -0.92151265999744
H           31.61775223698973       -4.67823965299240        0.53817076885817
H           33.35504259796141       -4.76829406555556        0.82885218014311
H           32.36595568447740       -6.23632983064685        0.92960239179646
H           30.43802157657174       -3.84764774273214       -2.26922171684743
H           28.56140792580506       -1.98595802324838       -1.68893523596161
Co          59.85893565100724       -0.00151821847607       -0.10578792937014
C           63.23598691334708        0.02176484820037       -0.24979623593417
C           62.57931706206246       -1.17501480350143       -0.44244046264237
C           63.24038213821134       -2.42244724106723       -0.68126459673844
C           62.27494324478391       -3.32308021576862       -0.98116935636913
C           61.02597737288141       -2.62067453145299       -0.93642558607547
N           61.21872058702214       -1.31876034154722       -0.54919780974844
C           59.82636959917307       -3.15243109929860       -1.38237511154153
C           59.81421424251480       -4.53561862445169       -1.93425562645630
C           60.16244418153748       -4.75726652294296       -3.26956959542564
C           60.54034428849262       -3.59747243985472       -4.15204111386057
C           60.15916189127651       -6.05437182582164       -3.76984091337582
C           59.81708072599994       -7.13178643448386       -2.95992241069787
C           59.80547461581589       -8.53176321626123       -3.51184658187349
C           59.46728454611196       -6.89843626135563       -1.63342122004976
C           59.46166492839875       -5.61023669805559       -1.11236681342769
C           59.08158759633271       -5.36581372391402        0.32370163961412
C           58.64529863423987       -2.43091073313732       -1.34867445363305
C           57.39692576762369       -2.91915656054777       -1.85150561485819
C           56.45236740596278       -2.01602930023169       -1.49385424168259
N           58.47254836632361       -1.21491155486883       -0.72877094892362
C           57.12520367828192       -0.98414057308194       -0.76822065607750
C           56.46115628689307        0.01516614360943       -0.05416297961967
C           57.15428468224518        0.99211238526448        0.66324407148482
C           56.51400108763748        2.00567550023733        1.44186995323358
C           57.48297208292335        2.87115101960059        1.82632554568159
C           58.71160547322179        2.38591680450243        1.27362751519331
N           58.50444523423159        1.19927829469493        0.60781415696271
C           59.89657740757053        3.10108902305424        1.28419986443009
C           59.91999606627127        4.45733023259845        1.89903222590706
C           59.52000005238556        5.56919103574143        1.15151621399492
C           59.05398745015670        5.39349379590323       -0.26924998170350
C           59.55666655125823        6.83090331043213        1.73253658459854
C           59.98280958297561        7.00140161422528        3.04626171903964
C           60.03697067317852        8.37785170158281        3.65213378510243
C           60.37536005058448        5.88792565685949        3.78090461400504
C           60.34873887110774        4.61624375518140        3.21962656699247
C           60.77838296774593        3.41628138044791        4.02091817110894
C           61.06389468716569        2.59904937603691        0.73004852700223
C           62.30213457941132        3.31986361763776        0.68688904524663
C           63.24411731895658        2.45245563311251        0.24701840991069
C           62.58080822503157        1.20289487697901        0.02539995876018
N           61.23542349921774        1.31769520758823        0.27253474575525
H           64.31811819712885        0.03198835124782       -0.30489557388875
H           64.30792778781553       -2.56677306740594       -0.62973694974851
H           62.37931123416057       -4.36744334939514       -1.22803256387313
H           61.47380635961324       -3.14876162613584       -3.80617599224339
H           59.76816840356178       -2.82696225593275       -4.12036918026862
H           60.67226863535991       -3.92077400907690       -5.18416449375612
H           60.43056928776586       -6.22625011691308       -4.80631570001304
H           60.15792261306588       -9.24429572241817       -2.76528066628887
H           58.78809036866076       -8.81293555017548       -3.79347856247018
H           60.43729774553570       -8.60692802676320       -4.39697758340376
H           59.19807158045231       -7.73353046094941       -0.99493185247477
H           58.15909245639964       -4.78396480895752        0.37544596034422
H           58.92883540769176       -6.30673776856843        0.85148196341781
H           59.86239058642519       -4.79884933246128        0.83356597151975
H           57.27643755898759       -3.84041534440569       -2.39838541760957
H           55.39054737281486       -2.03983912113179       -1.67942333553863
H           55.45610762503510        2.04112035490179        1.64716596714009
H           57.39063478744568        3.76811520243471        2.41727517422522
H           59.79723203325011        4.84375801707101       -0.84921639010680
H           58.88119089827938        6.35880248015245       -0.74415520571979
H           58.12344585123358        4.82270008026274       -0.29290485732456
H           59.24833156315174        7.69463129777049        1.15251009431948
H           59.18745278561096        8.97820966034903        3.32473858996607
H           60.03335455581036        8.32543155046477        4.74091551631411
H           60.95115272269523        8.88665179378524        3.33759045545136
H           60.70719059743097        6.01063189784416        4.80672539860168
H           61.68555297529794        2.98334160312611        3.59442849481176
H           60.00270570239275        2.64881531619034        4.00367497370423
H           60.97830108184611        3.69091173391124        5.05621049590129
H           62.41658840656228        4.35388270782760        0.97019713077293
H           64.29886196643072        2.61855048456402        0.09517055573701
C           39.07776032823434        0.01317834643505       -0.06831860614774
C           37.85571285160287        0.02463888078081       -0.05964501512093
C           40.42762572049210        0.00275492426637       -0.06603561895761
C           41.64982324803507       -0.00479740425017       -0.05137255586573
C           52.48341049890227        0.02679294415164       -0.03541977860756
C           51.26149402817499        0.02071856712845       -0.03294289228061
C           53.83395140888690        0.02926226356388       -0.04120829029024
C           55.05563784637837        0.02757838537657       -0.04498376794598
Co          46.45458553290788        0.01587814632025       -0.04096304921337
C           43.05342740433748       -0.01657523114279       -0.04394189833890
C           43.73269858378342        0.47066354022873        1.07631796773901
C           43.07683390513274        0.98596024984936        2.23674763169473
C           44.02914814854547        1.12420002242646        3.19162453326997
C           45.26350560032893        0.69912713999876        2.60559835068561
N           45.07692013906974        0.34649167429860        1.29007663020784
C           46.44176556494380        0.53266135806401        3.31631651836212
C           46.42947030401814        0.74897589789733        4.78940013760232
C           46.82305325374605        1.98030811118546        5.32156772837308
C           47.26222137870398        3.09142380434945        4.40556365725602
C           46.80489574185993        2.16524785031354        6.69892653312045
C           46.40235983104652        1.14329897370480        7.55287921192082
C           46.40808445225743        1.35075445381257        9.04324552048728
C           46.01494853595530       -0.07802037622811        7.01179583938928
C           46.02294133173334       -0.28540628670412        5.63743952088899
C           45.59853324961460       -1.60977120097938        5.06093740259349
C           47.63082078919952        0.17585517819930        2.70174939315138
C           48.87088374228781        0.01884124069657        3.39953744940310
C           49.83472288854673       -0.10893278045412        2.45551560474413
N           47.82565785988214        0.08003449563946        1.34327431723503
C           49.17816167394411       -0.03981009716657        1.18792721019917
C           49.85695105494106        0.00707044450146       -0.03217681590864
C           49.17676060742010        0.03331483477196       -1.25254373328077
C           49.83001930978524        0.11116141879345       -2.52099063375555
C           48.87117913506570       -0.06384585810802       -3.46312322585391
C           47.63734108111471       -0.25227275543051       -2.76303629057345
N           47.83058416490827       -0.14287391803515       -1.40609826414022
C           46.45676475750690       -0.64895296233770       -3.37102462414149
C           46.45322682332290       -0.89825233400457       -4.83889352210660
C           46.03849203811470        0.11127004291554       -5.71254985162157
C           45.59283847838802        1.44279888893420       -5.16940365618485
C           46.04051870015176       -0.12797877644301       -7.08176476409788
C           46.44583270695865       -1.35654716077806       -7.59243714488557
C           46.46178982670052       -1.59836657325470       -9.07753593953200
C           46.85651263807073       -2.35344491699849       -6.71308936240395
C           46.86514233944094       -2.13635245942066       -5.34037242959692
C           47.31395983992328       -3.21945665220598       -4.39604217416638
C           45.27776748154155       -0.80812902104507       -2.66145184675723
C           44.04346012266743       -1.23136325014137       -3.24957571821525
C           43.08331816045048       -1.05164546000111       -2.30996353520762
C           43.73598229458496       -0.52281892428249       -1.15370955953699
N           45.08518633919704       -0.43492094101480       -1.35130204918856
H           42.02045374357276        1.19153215837246        2.30142940184716
H           43.92144550354944        1.47298539383318        4.20598642123410
H           48.19303995120174        2.82009970680701        3.90329516773337
H           47.42497635153404        4.01332024740570        4.96303596052567
H           46.50895638430192        3.27276877905843        3.63705942953108
H           47.10788024138269        3.12168056514047        7.11229462623778
H           47.39810828931413        1.12426101281030        9.44593722748245
H           45.68550650734685        0.69558166036563        9.53015202058036
H           46.17058615927108        2.38544939975111        9.29190380106940
H           45.70038212609636       -0.88138169050163        7.66988028823486
H           44.68248355741517       -1.49172739925787        4.47862063044473
H           46.36954645827707       -2.00011136078442        4.39449471282209
H           45.41606155948404       -2.33720933109643        5.85132551085285
H           48.97446111384142        0.02479745507623        4.47254830930726
H           50.89793259521559       -0.22931361076052        2.58757543877023
H           50.88807370820262        0.26891659854651       -2.65513949513762
H           48.97466163852245       -0.07734689810756       -4.53608601437113
H           44.66762264148606        1.32754512109296       -4.60106846834645
H           45.41753971916939        2.15294947618442       -5.97695014247385
H           46.34833178741481        1.85328956398753       -4.49737600168581
H           45.71967223468519        0.65602407884393       -7.75986433674543
H           46.23457896908899       -2.64059021925188       -9.30332352975391
H           47.45208009096942       -1.37269922114342       -9.48002169961240
H           45.73632879802283       -0.96101731216046       -9.58343001556591
H           47.17349796310427       -3.31530478360392       -7.10265844495641
H           47.48793795144290       -4.15324980198173       -4.92981127272248
H           46.56095169154573       -3.38949184978009       -3.62472939866511
H           48.24060591793551       -2.92534075582832       -3.89889866104997
H           43.94076548195606       -1.60140154189700       -4.25689857228582
H           42.02408821987902       -1.23937606745319       -2.38178472818873
