220
 energy: -392.349599209050 gnorm: 0.000607184837 xtb: 6.5.1 (b24c23e)
Co          41.05520210629001       -0.01693901914002       -0.02065833602247
C           37.68583001555814       -0.03704811485994       -0.07701070048416
C           38.34938126218988       -1.24536158195664       -0.06823041283388
C           37.69280326927660       -2.51741629349284       -0.08124104565681
C           38.64562912049600       -3.44879726370909        0.15698661847304
C           39.88587424719669       -2.74507261027119        0.30914165044432
N           39.70012061166707       -1.39967984626141        0.11919140530321
C           41.06067433826671       -3.32524650095438        0.76906566911745
C           41.06196406746482       -4.76694200578906        1.11109510014753
C           41.23798033707640       -5.19956807066426        2.42416431183749
C           41.22931197078027       -6.55947536226132        2.69277285650084
N           41.06470148109552       -7.48272261969993        1.75109750010882
C           40.89872068130543       -7.07756633794629        0.49624312369513
C           40.88739276823328       -5.74093253276946        0.12943204319362
C           42.23264201323295       -2.59903606911627        0.91422757057531
C           43.47354554858092       -3.15516620172541        1.36431780353175
C           44.42565447221445       -2.21753213601770        1.14283227304620
N           42.42053842358523       -1.31063599198730        0.46765045857178
C           43.76691904785228       -1.09338538638190        0.55566332026682
C           44.44258298827861       -0.01161429695321       -0.01421765725679
C           43.76180182374178        1.07435785128919       -0.56920232076890
C           44.41221060100024        2.19774980917728       -1.16657755212106
C           43.45966118387712        3.14191366381930       -1.35944682249075
C           42.22974767474798        2.59258059620649       -0.87342297345867
N           42.41787746852692        1.29652882720027       -0.45323831323538
C           41.04902355401632        3.30958027103454       -0.74486515361357
C           41.05404421351982        4.75759504072822       -1.04636601095172
C           40.22879116444631        5.29873996504756       -2.03173040082371
C           40.27377254588203        6.66201122545702       -2.27676176247212
N           41.06868396453488        7.49232960095688       -1.60930600538855
C           41.85713432559663        6.98512142731714       -0.66717378955885
C           41.88791767201128        5.63540971599524       -0.35419482746222
C           39.86370888254496        2.70278699971224       -0.34985362060523
C           38.61812737388600        3.39255201039873       -0.17978831768423
C           37.66651808344451        2.44489491302664       -0.00769773172315
C           38.33396474024406        1.17951627800117       -0.05348304349671
N           39.68751241256061        1.35120989654985       -0.19909098182048
H           36.60237541573370       -0.04400329928913       -0.09320140860270
H           36.63432769671363       -2.65683308098512       -0.23314198959438
H           38.52926002294477       -4.51663397347333        0.24655570316742
H           41.36476800870726       -4.48164742148433        3.22561115553326
H           41.35996641514651       -6.92197469954920        3.70819208387183
H           40.76911615370043       -7.85559804326798       -0.25038257025775
H           40.75956401420454       -5.45671067527401       -0.90822478469659
H           43.59365219129590       -4.14568570875221        1.77179229437990
H           45.48507709863649       -2.27652478562052        1.33346676284940
H           45.46547969421874        2.24910463274202       -1.39063563983920
H           43.56874377266017        4.12388823053415       -1.79014566187289
H           39.57416546999572        4.65811170479566       -2.61050754999172
H           39.64419742222264        7.10593361600959       -3.04234286358984
H           42.49335298093475        7.68866043217514       -0.13815743607743
H           42.53905208901460        5.26826594803864        0.43017110595255
H           38.50019820317457        4.46384538906930       -0.19787716851911
H           36.60490753646910        2.57087955921433        0.13373008179293
Co          73.49500144658930        0.03701055417800       -0.03953550293802
C           76.86562698780503        0.02136606246040       -0.15475412666522
C           76.19681739476091        1.11384160492410       -0.66388253374063
C           76.84954718960873        2.25333156154418       -1.23405308370917
C           75.89852442352684        3.20176010756359       -1.40162821722952
C           74.66280947007607        2.63604822687163       -0.94432636513721
N           74.84875270806215        1.33935390224106       -0.53948212532423
C           73.49016350628101        3.35919794413541       -0.77025816207337
C           73.49095626237128        4.81043092123323       -1.06990136253911
C           73.32659289595625        5.75607335098656       -0.05943453384255
C           73.33717823286671        7.10266339459196       -0.38821416182163
N           73.49276699635833        7.54304886576283       -1.63241264252443
C           73.64702799214410        6.64680070291018       -2.60155757214091
C           73.65559346404530        5.27984984985232       -2.37183413568385
C           72.31694473601628        2.76552213993274       -0.33208212077973
C           71.07617145394039        3.46316300140407       -0.17405746067084
C           70.12145853868093        2.52213309153257        0.01949514387429
N           72.12595571597075        1.41003875118560       -0.18318788319201
C           70.77805574504029        1.25409820101854       -0.02334283145832
C           70.10129768723725        0.03092251197949       -0.02962961697571
C           70.78619793611499       -1.18706231185275       -0.00818902746152
C           70.14004492230080       -2.46076933054701       -0.03532034162083
C           71.09508878503740       -3.38827428454205        0.21638458321404
C           72.32404933266022       -2.67577983237413        0.39473740752842
N           72.13169176729807       -1.32953410058204        0.18683228150122
C           73.51033639224467       -3.25838369268307        0.81615713320902
C           73.50957492716280       -4.68869300973579        1.19309456793548
C           74.32089258613404       -5.61397664049636        0.53716241935535
C           74.27762720016625       -6.94410869185231        0.92406445517267
N           73.49741757419355       -7.38863555711009        1.90394280257168
C           72.72265316064583       -6.51287349150370        2.53602570750157
C           72.69117589616711       -5.16461369434445        2.21720048489355
C           74.69808940674694       -2.54103798213117        0.87557954570568
C           75.95054150646031       -3.08528698197569        1.31283530089476
C           76.90017022432228       -2.16644850316165        1.01771501499061
C           76.22438823313982       -1.05471725298931        0.42105432470803
N           74.86913630872422       -1.26764459741967        0.39633376875114
H           77.94852663046123        0.01593948361055       -0.19358774944050
H           77.90500524462658        2.30895328442456       -1.44803792513800
H           76.01314583077485        4.20433929161974       -1.78047198778843
H           73.20672466536548        5.44230033353190        0.97060512494776
H           73.21562429072888        7.85933842775081        0.38133777851162
H           73.76906851535939        7.03791760468440       -3.60738295895369
H           73.77358070905471        4.58475460076301       -3.19447843997827
H           70.95886927366165        4.53305841140170       -0.22938194742120
H           69.06312976943295        2.65948246191704        0.16974693784068
H           69.08894209580995       -2.61107400701445       -0.21992099576931
H           70.98885050517646       -4.45925145127626        0.27404121032245
H           74.96285474871793       -5.29981734466253       -0.27715495447895
H           74.89584060578682       -7.68414584639186        0.42434141999153
H           72.09819519274208       -6.90612922094323        3.33286871796950
H           72.05119210132419       -4.48471362115414        2.76689163405062
H           76.07383847567444       -4.04978498801838        1.77805658281466
H           77.96517715055980       -2.21937876545127        1.17848600963613
C           45.84870225289854       -0.01265146391663       -0.02513919512165
C           47.06575072018408       -0.01107779188479       -0.03533507458419
C           56.66540376269231        0.00534324230925       -0.05080952365092
C           57.88361422391665        0.01091161853441       -0.04859920522185
C           67.47759199988086        0.01953298459059       -0.04722965747946
C           68.69551683754081        0.02595095515062       -0.04158344947355
Co          51.86716440779710       -0.00183221310956       -0.04298189125202
C           48.47122760396341       -0.01318417126824       -0.04381746514644
C           49.15516516833366       -0.69526975855513        0.96591712264730
C           48.50930033648813       -1.35734889797276        2.05396444994499
C           49.46702804562187       -2.06542036666508        2.70153624641132
C           50.69264749931317       -1.83638398775352        1.99903507816472
N           50.49931543778103       -0.94124583699528        0.97423942846525
C           51.87467026405369       -2.52488104502897        2.24060164044104
C           51.87514552463280       -3.61490364547964        3.24004361603844
C           51.02924775662574       -4.71617200451164        3.11040238151283
C           51.06544588120232       -5.71252414808694        4.07291529566740
N           51.87012351732050       -5.66942055468950        5.12996558699160
C           52.67723348103840       -4.62199924582491        5.26277569093763
C           52.71844304647279       -3.57972087301204        4.35013801664974
C           53.05378363877159       -2.21680899354237        1.57768141675821
C           54.28728465360864       -2.92152234241306        1.75464307452256
C           55.24191614321477       -2.20112722322862        1.11683224512230
N           53.24035981591851       -1.11807963119618        0.77033295791726
C           54.58589168527203       -1.06879610426532        0.54415302727173
C           55.26249387687527       -0.00081503462736       -0.05375074825690
C           54.57780353343387        1.05737996033209       -0.65972364623699
C           55.22360203446337        2.19250021800398       -1.23800686814969
C           54.26586726934932        2.89046726043998       -1.89630269472631
C           53.04019947454664        2.17212045887191       -1.72123716137788
N           53.23474589550488        1.08279763846583       -0.90418089788925
C           51.85935269097202        2.46237229625586       -2.38986428041599
C           51.85603730402543        3.53982567443656       -3.40291460950973
C           52.69921153633501        3.49289936690885       -4.51280707314932
C           52.65754900482235        4.52512871897245       -5.43658744412620
N           51.85040866437724        5.57407248012386       -5.31463292914965
C           51.04644251846044        5.62859943721566       -4.25780764560293
C           51.01060341319953        4.64254482507369       -3.28452236078450
C           50.67947101475288        1.77684537644731       -2.13179229886629
C           49.44652801456376        2.00592706455395       -2.82183778232544
C           48.49135964496201        1.31709255534435       -2.15055588112633
C           49.14664431340311        0.66159942070270       -1.06402449226425
N           50.49339813014968        0.89136826219722       -1.09652881928619
H           47.45763791861129       -1.28426027226762        2.27912290779582
H           49.36300492899161       -2.68762168736725        3.57535382566819
H           50.36503243630867       -4.79900226129614        2.25842086005288
H           50.41994505664138       -6.58208070541862        3.99141996590028
H           53.32026901089984       -4.61425101777976        6.13796025262393
H           53.38363990547165       -2.73889682334053        4.50646716916397
H           54.39823845294190       -3.84456375433701        2.29982532156649
H           56.29745605759019       -2.40438839329125        1.03567517934006
H           56.27502318989355        2.41248041202235       -1.14728021792634
H           54.36945257457975        3.80845727113514       -2.45142638971597
H           53.36509034430374        2.65086435942153       -4.65944558038609
H           53.30026429813179        4.50853312528220       -6.31186043556964
H           50.40115285860963        6.49908053201030       -4.18474377544051
H           50.34736489557216        4.73539273911309       -2.43281821385224
H           49.33603444897341        2.61756373152531       -3.70227414448500
H           47.43569369265931        1.25235568432385       -2.35899649078753
Co          62.67859753964124        0.00016313561822       -0.07115381109242
C           59.28631433872881        0.01479071451690       -0.04686159517445
C           59.96918372658178       -0.77137506524693        0.88699507252161
C           59.32473347329460       -1.54530193578900        1.89992586540770
C           60.28371740782642       -2.31611289674972        2.46926737475773
C           61.50827775751448       -2.01700017399428        1.79057412116588
N           61.31350260176145       -1.01053893818980        0.87303927203466
C           62.68432322227144       -2.73944496685779        1.93485838221618
C           62.69431871661317       -3.93233318040473        2.80832368210575
C           61.82942899500338       -5.00352767060061        2.58647602245754
C           61.88264254218865       -6.10056478236105        3.43182681274602
N           62.72108614261868       -6.18310874901053        4.45969461367769
C           63.54645078210435       -5.16497177094793        4.68044867352489
C           63.57292269763576       -4.02896462587277        3.88727077373539
C           63.85587784238538       -2.37580097338650        1.28215617231946
C           65.07723931019791       -3.11928096923335        1.33581612416692
C           66.03206024788864       -2.34014939559481        0.77022574316054
N           64.04827414921593       -1.18608271574656        0.62181429814827
C           65.38967004129752       -1.13110922560005        0.36508554293541
C           66.07271609336880        0.01725631386203       -0.04975426343550
C           65.38765778277386        1.16435826178607       -0.46423491412579
C           66.03038193477806        2.37235557704183       -0.87270253162134
C           65.07425561361062        3.15366936143081       -1.43230233128612
C           63.85188665074752        2.41184809151003       -1.37366185035436
N           64.04403212110689        1.22423547700539       -0.70818796918555
C           62.68011867978991        2.77697829956430       -2.02439385190066
C           62.68644858944959        3.97106355027949       -2.89623115784132
C           63.56254567136602        4.07275616584909       -3.97677590636931
C           63.52792965552465        5.20866810481107       -4.76975082363822
N           62.69681382092359        6.22189895657805       -4.54757653889060
C           61.86110678318760        6.13472454088220       -3.51797464240334
C           61.81611684727063        5.03741083628204       -2.67245007861266
C           61.50443420485934        2.05286818565067       -1.88240213497718
C           60.28055832052001        2.34693788007198       -2.56395643121600
C           59.32286776309451        1.57287236085438       -1.99612110181165
C           59.96765028132417        0.80297784416836       -0.98057663039310
N           61.30942174431969        1.05219428380592       -0.95910909721986
H           58.27317054958946       -1.49762363330350        2.13246322203603
H           60.18044417478771       -3.02726488245721        3.27248522054438
H           61.13816818445589       -4.98615678472075        1.75236364356591
H           61.22321631254073       -6.94927504091550        3.27597766089153
H           64.21747329528596       -5.26096995409086        5.52895600885019
H           64.25488671726201       -3.21765917378383        4.11226397494208
H           65.18194364643375       -4.10646736309468        1.75539997448330
H           67.08172027518459       -2.54955465785723        0.64523636296240
H           67.08143888639211        2.57852622504435       -0.75439751547200
H           65.17849540259874        4.14030255311077       -1.85320567760292
H           64.24837843443551        3.26517438830682       -4.20340360874587
H           64.19640103411484        5.30871719582635       -5.61979040758588
H           61.19663555929223        6.97927061807892       -3.36093460948848
H           61.12648745221216        5.01579956086734       -1.83709519470583
H           60.17701487161522        3.05498321522018       -3.36991572234383
H           58.27214554974353        1.52055628597087       -2.23144626263643
