264
 energy: -503.400745247145 gnorm: 0.000738427818 xtb: 6.5.1 (b24c23e)
Fe          43.74735331960402        0.14126770642479       -0.41061180071741
C           40.36322182179564        0.16364588309997       -0.34690885239141
C           41.01762423430542        1.37842614542370       -0.34600688897069
C           40.35028592381440        2.64537405230343       -0.35407976457191
C           41.30978476423562        3.59065144443884       -0.21689962714758
C           42.56207266930360        2.89835554262432       -0.11113720032979
N           42.37344923593628        1.54940185935167       -0.24250556108532
C           43.77798177268571        3.51653091204860        0.16238636428311
C           43.79273691029777        4.97862581676245        0.40349514260537
C           43.06363197463281        5.53236017221139        1.45206049409540
C           43.07981872987268        6.90866524691771        1.67475322409556
C           42.28311547082320        7.43904782916515        2.80990658958841
O           42.37316907802987        8.76932032177981        2.95211907486176
O           41.61187637117934        6.76106311108544        3.54478181141152
C           43.82639420704436        7.74312824039918        0.84303507172709
C           44.55162088891687        7.19429690019607       -0.20289699397646
C           44.53826568780958        5.82414064998320       -0.42186290457222
C           44.97870770928245        2.82217853272430        0.21710256613612
C           46.23813901829640        3.41553485943174        0.55628023263949
C           47.18221242282780        2.46075737098068        0.37270838651178
N           45.15111479785431        1.49966813867950       -0.11480073561048
C           46.49651990811360        1.28615754938291       -0.06667150162746
C           47.15170968864855        0.12221317336562       -0.48928801779980
C           46.46550744076927       -1.03689291608699       -0.87328148633594
C           47.11816024115082       -2.22189208034763       -1.33473158011333
C           46.15653310483979       -3.16710857605446       -1.46959407447757
C           44.91945728811084       -2.55664450933756       -1.08184327733621
N           45.12116321255561       -1.23463432034874       -0.76471446865494
C           43.71251076671152       -3.23448137651116       -0.98095927123767
C           43.69670636840454       -4.69599559315958       -1.22724079453988
C           44.45179020707597       -5.55680967699075       -0.42752655569332
C           44.43695624303078       -6.92617262576958       -0.65335716858026
C           43.67303099470352       -7.45227438931056       -1.68164184137570
C           42.91609043776984       -6.60194473685003       -2.48918382117571
C           42.11217533877326       -7.20422190987278       -3.58236200550475
O           41.41501828386930       -6.30632024083993       -4.29351428328416
O           42.07273320020177       -8.38302358359534       -3.82614192247687
C           42.92728915786783       -5.22766808397508       -2.25996696987608
C           42.51592646056815       -2.59980331682747       -0.66342629943062
C           41.25954539846759       -3.27563839762254       -0.51126165707859
C           40.31818452296156       -2.31779867058584       -0.33852524500415
C           41.00122194806181       -1.05978088253147       -0.37208581310945
N           42.34963486975349       -1.24839452667519       -0.52741987562826
H           39.27932590587070        0.17073550810310       -0.32604424254561
H           39.28408330520138        2.77459431104107       -0.45090070213098
H           41.19255074026314        4.66178930506141       -0.18918137834021
H           42.48806010741218        4.89778129522445        2.11704527875031
H           41.82798812006651        9.03587665861635        3.71016947478476
H           43.83561199243479        8.81239554152543        1.01622068788444
H           45.13139115786790        7.83731379489438       -0.85538536812068
H           45.09761679136825        5.40255570146932       -1.24953397077379
H           46.37235910520912        4.42982328146338        0.89536672718781
H           48.24837462208723        2.53133996910804        0.51630520127623
H           48.17642031969133       -2.30588094780402       -1.52267077226706
H           46.26469383521637       -4.18569178528884       -1.80505328079809
H           45.04107249256197       -5.14761083420682        0.38541833468346
H           45.02417048870216       -7.58264390107114       -0.02144279815524
H           43.65095042292102       -8.51924940868978       -1.87258334621229
H           40.92065165705797       -6.77678084776363       -4.98424371074050
H           42.34912644668026       -4.56824731166393       -2.89637002969028
H           41.12769641006113       -4.34525250698084       -0.53369151846464
H           39.25481951867153       -2.43313004288873       -0.20117259288996
Fe          91.56313758172683        0.20272101550191       -0.22569793012247
C           94.94776137447614        0.12475185331106       -0.13033286325317
C           94.28828333650355       -1.00512323896779       -0.56906742591724
C           94.95217810485545       -2.18901491006894       -1.02497177438920
C           93.98602599252169       -3.10267657232940       -1.27874256282644
C           92.73319556211526       -2.48198507662035       -0.95598894000678
N           92.92969720716361       -1.18328839966998       -0.57106325132002
C           91.50922866806673       -3.14265377894549       -0.95997542801836
C           91.48238528705518       -4.58568181020616       -1.29664244348048
C           92.19035166401902       -5.50775751989330       -0.53093375719945
C           92.16617049839505       -6.86341032523441       -0.85607305702141
C           92.94380552310373       -7.79716429209274       -0.00286953504100
O           92.85522832442459       -9.07754689238605       -0.39121820393196
O           93.60107872693295       -7.46138467738517        0.94873645182651
C           91.43069716973194       -7.30607469228441       -1.95545882941649
C           90.72414016517293       -6.38998063159274       -2.71881520985397
C           90.74687726583483       -5.04119304740062       -2.39366885789455
C           90.31169162744288       -2.51055282995896       -0.65423765157739
C           89.04874569503662       -3.18148830991550       -0.56483618039931
C           88.11242100093820       -2.22547302007600       -0.35139957843901
N           90.14897650416344       -1.16158864445231       -0.44872569271638
C           88.80578462197084       -0.97635664451314       -0.30628954443892
C           88.15590232866384        0.26213888965561       -0.23230869636610
C           88.84636122234029        1.47944146226366       -0.17257418833619
C           88.19551388468884        2.75209437985077       -0.16383992083495
C           89.16664606389638        3.68370626806740       -0.00624644786521
C           90.40720045191614        2.97393079870370        0.09722577484969
N           90.19618698734993        1.62350714299941       -0.05175947207698
C           91.62602341846106        3.57353436466484        0.37950306661615
C           91.66265257191172        5.03648787886253        0.61756573647045
C           90.95692194123112        5.60304270389152        1.68104150325562
C           90.99472815084199        6.97262866702703        1.90367562271308
C           91.73223093386704        7.79258099992933        1.06608245267378
C           92.44056701700154        7.23795424562922       -0.00111399396665
C           93.21745749147001        8.15025592307048       -0.87774989917876
O           93.86364248591319        7.52057121232866       -1.86967378993914
O           93.27737176945372        9.34426335949594       -0.73201007926239
C           92.40719679543187        5.86269470854624       -0.22164261072318
C           92.81885197424900        2.86147917063020        0.45288893150206
C           94.07963164857027        3.44003983004971        0.81894078877024
C           95.01032753043344        2.46560613904178        0.68732830017499
C           94.31740874808088        1.29349500308500        0.24390466370532
N           92.97242281797676        1.53775926495450        0.14404427921379
H           96.03086425997063        0.09741628791798       -0.09197914530536
H           96.02050306544366       -2.28809410868922       -1.13324073084503
H           94.09965515597824       -4.10819683331798       -1.64990979542958
H           92.75587812316851       -5.18411932817290        0.33602692998315
H           93.38892946039013       -9.62005926682462        0.21191622666513
H           91.41562379637223       -8.35933116997425       -2.20814635800127
H           90.15249087148648       -6.72667394172414       -3.57626650078237
H           90.20276453146410       -4.32799258167109       -3.00274995881738
H           88.90763499579332       -4.24691139767341       -0.64694555555977
H           87.04665219740602       -2.34014032940614       -0.23605039739440
H           87.13240929659347        2.89828858495783       -0.26741046049734
H           89.06232438100666        4.75566667015682        0.03527368818624
H           90.38875609567332        4.96110153097766        2.34489377440706
H           90.44617251673685        7.39823541555083        2.73620888768388
H           91.77103040486853        8.86435592607224        1.22474953927768
H           94.34291170695721        8.18222288624288       -2.39447538651698
H           92.94905873713279        5.43492863343945       -1.05685822135136
H           94.22020850234190        4.45975357556284        1.13897431574503
H           96.07291067054734        2.51814979470653        0.86357852443346
C           52.34290992271884        0.17029343369027       -0.72296916572762
C           51.11460962676639        0.14529890114640       -0.65188056486087
C           49.77574651444591        0.12833920596357       -0.58614018427404
C           48.55089046289244        0.12112286425618       -0.53566524832862
C           53.67964268924176        0.21156942502900       -0.81176592235456
C           54.90158197324079        0.25940970176912       -0.90303044150029
C           68.27451179030429        0.31305974667982       -0.69220139674771
C           67.04332204029123        0.30773942432199       -0.70507702620965
C           65.70482945340407        0.31643540475626       -0.75600382807477
C           64.48081136434901        0.33503314661913       -0.83634540971791
C           69.61357152658671        0.33378346669049       -0.71784149334123
C           70.83856738523460        0.36696212268377       -0.77425109614655
C           84.19183048222345        0.33962749221687       -0.34788240148035
C           82.96391269997999        0.36268675881343       -0.42743033578884
C           81.62845510744513        0.39963170283698       -0.53782840159785
C           80.40866006680982        0.42764830378665       -0.66048075785380
C           85.53084411278687        0.30980414097664       -0.28574013532965
C           86.75595126354850        0.28643507114333       -0.24844957123692
Fe          59.69254063524834        0.43361685259264       -1.19645902683127
C           56.29432711657894        0.32351168413111       -1.01602936906810
C           56.95913488938591       -0.68794217020431       -1.72491199572364
C           56.28293332584399       -1.72193997853776       -2.44252858607170
C           57.24352300044000       -2.51163887773573       -2.98218075407428
C           58.50259648677022       -1.97850711273943       -2.55470704043194
N           58.30936443323687       -0.82839177545735       -1.82748480110034
C           59.72518972617055       -2.61102054129881       -2.74146599180718
C           59.75760486163482       -3.90869510434891       -3.45651000275870
C           59.05428504339113       -5.00819950090223       -2.97324616329021
C           59.09340229599191       -6.22543124412683       -3.65207813445929
C           58.32221568212059       -7.36152978890385       -3.08604538386944
O           58.43335941287836       -8.49159442221999       -3.79827745126676
O           57.65360485056167       -7.29710558991521       -2.08666423498559
C           59.83825177259842       -6.34881575662755       -4.82467170531878
C           60.54129802735117       -5.25559925791263       -5.30641340830063
C           60.50588036983353       -4.04556231497858       -4.62832112164084
C           60.92182723276606       -2.10947945081541       -2.24145365995352
C           62.16150838727991       -2.82631777832341       -2.25538972678334
C           63.09198960497894       -2.00783289521205       -1.70565528908155
N           61.09201902730585       -0.87432889587251       -1.66899091854849
C           62.42051755193425       -0.79005420820658       -1.37595857344159
C           63.08846490532907        0.36918627064459       -0.95778377986089
C           62.42602971671680        1.58743132555541       -0.74282415308725
C           63.10548224929393        2.82222286589425       -0.50695530892014
C           62.14732196046240        3.76643796886798       -0.33964158719344
C           60.88588974441222        3.09394326725626       -0.43364828890135
N           61.07693986332624        1.76522723807234       -0.73143841531769
C           59.66227662639269        3.68016081381433       -0.13948788556903
C           59.62917137037858        5.10565951344458        0.26554096716495
C           58.90578488197739        6.03011436952981       -0.49140241316740
C           58.86836603633566        7.36808790349891       -0.12488595130418
C           59.54525478716911        7.79760934555041        1.00442532468789
C           60.26482823328576        6.88160671240441        1.77307429889950
C           60.97096089907916        7.38087021035292        2.98044357305031
O           61.63670068557796        6.42627815800784        3.64546743657485
O           60.96230184222765        8.52851982565098        3.34492182054092
C           60.30720160952689        5.53906073830791        1.40263193260719
C           58.46170957210730        2.97763256194900       -0.15648669153888
C           57.21896181839988        3.50142272135526        0.32442304620091
C           56.28725214747003        2.53574152352530        0.13015044619660
C           56.96097946132164        1.43676588632642       -0.48661255778870
N           58.29214513894626        1.69895283307945       -0.62218604792375
H           55.21196027450312       -1.81167579324149       -2.52654574270990
H           57.11781150388259       -3.38090027609394       -3.60657350725265
H           58.48322127762179       -4.93595212646779       -2.05412443459285
H           57.90416558176901       -9.18196168171172       -3.36654933487967
H           59.86501723382455       -7.29475445652125       -5.35182521277042
H           61.12187218308186       -5.34432883107616       -6.21763379980774
H           61.05054211680640       -3.19125250692417       -5.01447713407119
H           62.29055222692902       -3.83093233658959       -2.62389679150387
H           64.14174488004743       -2.19329812447390       -1.54514732220341
H           64.17691803205466        2.94011499704511       -0.48899414132055
H           62.27571975228028        4.82156636460384       -0.16170177833911
H           58.38225950778326        5.69548840485453       -1.37998526688371
H           58.30797747572016        8.07559709672353       -0.72524598275094
H           59.52530555641349        8.83872318266170        1.30620318999425
H           62.06634164240178        6.82967973114003        4.41726785276904
H           60.85305604186760        4.82724149217896        2.01039136532535
H           57.08874297315314        4.47533573582745        0.76740318419843
H           55.23502349190642        2.55844812794549        0.36342282302592
Fe          75.62694056803520        0.51752225543282       -1.07724090822961
C           72.23192823773874        0.41702311057407       -0.87682863597211
C           72.89528272721587       -0.63910925502641       -1.52011701989915
C           72.21713111450205       -1.71499886884156       -2.17210285727411
C           73.17611225201158       -2.53013602164579       -2.67517100310817
C           74.43700354581956       -1.97033182724821       -2.28814734326024
N           74.24445801435486       -0.78177632868275       -1.62379130670933
C           75.66029082136252       -2.60690025562862       -2.44796034315144
C           75.69893973107673       -3.93359583668553       -3.10717240077658
C           75.00236664444564       -5.01748646969462       -2.58105152021162
C           75.04701670568522       -6.25947069062164       -3.21337234513629
C           74.28305162506967       -7.37751113448403       -2.60360984133839
O           74.39893321248519       -8.53299962003070       -3.27325883454775
O           73.61509621634153       -7.27924476670839       -1.60653966028289
C           75.79058202203672       -6.42351163710676       -4.38179835586276
C           76.48801529418249       -5.34607987807367       -4.90542769171656
C           76.44732020034739       -4.11155322940680       -4.27351259804645
C           76.85617008075195       -2.07968325294457       -1.96988197968039
C           78.09298597797991       -2.79999589929926       -1.93189493901989
C           79.01941063336226       -1.95774044562807       -1.41123145392013
N           77.02412383182865       -0.81721723657004       -1.46263575655224
C           78.34985993058417       -0.72101013851054       -1.15720119095932
C           79.01873746965661        0.46196437199295       -0.81494261542809
C           78.36012992697960        1.69615702875085       -0.70658559673695
C           79.04071970963686        2.94466913132494       -0.56885927659321
C           78.08348447757555        3.90055039352870       -0.47694540677695
C           76.82143085414160        3.22405348358969       -0.51488174137196
N           77.01091496605237        1.87686879005046       -0.71045167201304
C           75.59849426063690        3.82937352978389       -0.25354315767885
C           75.56628620008226        5.28005697412568        0.04823398937665
C           74.82519549781280        6.14515689812994       -0.76014204099129
C           74.78819878334799        7.50601430988448       -0.49070514748567
C           75.48386830135790        8.01850035271505        0.59159464986460
C           76.22159062775536        7.16286900090729        1.41095220326576
C           76.94925820003273        7.75084594678036        2.56439814559432
O           77.63339978195401        6.84939428520164        3.28289737316526
O           76.94167151222771        8.92173472597673        2.84532737935539
C           76.26265369115755        5.79704579238461        1.13842944989699
C           74.40010948623932        3.12537377930602       -0.20836173412782
C           73.15972097414813        3.67750736687573        0.24707144940504
C           72.22864646835036        2.69951827683556        0.12484352249863
C           72.90002633016520        1.56292023066365       -0.42295850918380
N           74.22923509728929        1.81727407135431       -0.58488397197961
H           71.14587225223657       -1.81347276460719       -2.24175680884057
H           73.04820383770317       -3.43356191484279       -3.24854765850902
H           74.43260386166023       -4.91365876889098       -1.66415923751749
H           73.87433851994652       -9.20943238219300       -2.81474516494170
H           75.82096436938242       -7.38849713702217       -4.87302252324200
H           77.06788894305953       -5.46640412702592       -5.81346729642804
H           76.98765710939099       -3.26985513401105       -4.69208683659433
H           78.22248838364419       -3.82265732349670       -2.24689730051153
H           80.06638145295226       -2.13825208568988       -1.22842744467809
H           80.11230310112633        3.06229217210446       -0.56072726133251
H           78.21347498303733        4.96631713842988       -0.38387491600158
H           74.28751537151847        5.74553412918644       -1.61267640410683
H           74.21359032097676        8.16632247559923       -1.13012610008781
H           75.46508282079677        9.07874949707447        0.81726086250135
H           78.07694812909544        7.30952128792281        4.01403426763797
H           76.82197731772247        5.13296126026115        1.78663670099848
H           73.03074338762994        4.67837877017116        0.62573142659280
H           71.17833788251815        2.73557621384061        0.36517155448784
