126
 energy: -250.987303024119 gnorm: 0.000269165045 xtb: 6.5.1 (b24c23e)
Cu          17.25548761753331        0.05519745872378       -0.02770171823376
C           13.84803510696348        0.09497636797261       -0.10079280647140
C           14.48649937938809        1.32515968477186       -0.05416756368520
C           13.81487733132742        2.59105340347210        0.02140411401655
C           14.77610035835405        3.54681061427722        0.05529906847585
C           16.04478410161961        2.87353218569500       -0.01364808446520
N           15.83749056190791        1.52488842769629       -0.06576251066441
C           17.29200651905352        3.50160778800164       -0.02244753127211
C           17.31662160923923        4.98593434736362        0.01340790226816
C           16.72841551406205        5.72978729752874       -1.00947730418328
C           16.75285596202780        7.11895452918053       -0.96361661416422
O           16.19038531571395        7.85223382276095       -1.95561653313584
C           17.36023976763154        7.76918421483865        0.11171229134218
O           17.36394532357020        9.13958018349353        0.13276270014623
C           17.94646193649357        7.02646554459177        1.13335153285767
O           18.52054163683420        7.73423153875469        2.15669521400293
C           17.93083730399768        5.63828237235829        1.08625981679428
C           18.52208105637379        2.84019549758810       -0.05431505773422
C           19.79612754322253        3.49007501093578       -0.16879740853154
C           20.74063018851654        2.51568001255804       -0.16298268219804
N           18.71158326079287        1.48475813878475        0.00224989304931
C           20.05530568188794        1.26508913335291       -0.04225045913366
C           20.69239289114693        0.01329483198019        0.03334413228109
C           20.02517046667717       -1.22325722875709        0.09492915103459
C           20.68096988871402       -2.49291834337996        0.17806211006976
C           19.71432567985362       -3.44463573539284        0.15555156009906
C           18.45465824395568       -2.76191098309365        0.07539580492521
N           18.67673838454762       -1.41008516382673        0.04324219965502
C           17.21057563971787       -3.39103173523850       -0.00285267892583
C           17.19120237447251       -4.87751988281398        0.00144375362733
C           17.63167742843570       -5.58348736296964        1.12052318710379
C           17.61041495059407       -6.97347106758665        1.12037204561208
O           18.03068428904805       -7.67050077783616        2.20478081826023
C           17.15357522574888       -7.66196187201568       -0.00438168079423
O           17.14796005672224       -9.03252981937553        0.02296230709353
C           16.71582615404005       -6.95659962534655       -1.12214214464251
O           16.28481385315203       -7.70095223644945       -2.18920753472004
C           16.72899957073858       -5.56715133962544       -1.12231619891018
C           15.98122636993049       -2.73365589290365       -0.08440124498751
C           14.69744761118418       -3.38048128477774       -0.11882954149563
C           13.75831766501118       -2.40247832261420       -0.14560510064115
C           14.45842910065224       -1.15015223331531       -0.12169209677426
N           15.80415477739677       -1.38001738561170       -0.08674697417485
H           12.76296283899162        0.10752506861203       -0.10776358616014
H           12.74407136951275        2.71728222298509        0.05275979219435
H           14.64469601565320        4.61424405462310        0.12972888993514
H           16.26710563595839        5.23650743545549       -1.85524683543137
H           16.30927393188306        8.79275500263502       -1.74341651461868
H           17.82147806853591        9.42388802089538        0.94002989051279
H           18.90161027307740        7.13853938125677        2.81509774787407
H           18.37769813340252        5.06601346932508        1.89081604951700
H           19.94508381045461        4.55355083354599       -0.26333252290214
H           21.80861459100466        2.62798280006858       -0.24718351858956
H           21.74678738217042       -2.63293795534687        0.24698424749460
H           19.84092938861198       -4.51465686114778        0.18436526776693
H           17.97596360807715       -5.05932737743629        2.00265040312236
H           17.93632655868460       -8.61799437742589        2.01218572656435
H           16.80408236680358       -9.34622475633525       -0.82854726967826
H           16.00684169663363       -7.12923854847755       -2.91673767253081
H           16.39802998078036       -5.02443717214744       -2.00004799917835
H           14.54137094726389       -4.44733821538574       -0.10910151810550
H           12.68485056009245       -2.50576976687954       -0.17130055875840
Cu          28.17005536280341       -0.05169868630600       -0.03405192812632
C           31.57750704345431       -0.08368630203081       -0.11049342626848
C           30.93880003123506       -1.31108406092796       -0.20382506656857
C           31.61016080673540       -2.57752781437566       -0.27218034104857
C           30.64874697280466       -3.53074900947797       -0.34718016332985
C           29.38020905707849       -2.85372008288686       -0.33955930540577
N           29.58777474814294       -1.50791375493363       -0.23832237160973
C           28.13285834585385       -3.47646919324930       -0.41965440659715
C           28.10785966601023       -4.95529581005036       -0.55215413334608
C           28.69601400201349       -5.57877725165528       -1.65258042921338
C           28.67108983805585       -6.96420170956157       -1.76427151817245
O           29.23348910716500       -7.58067854202344       -2.83282273449253
C           28.06327532006944       -7.73176961430307       -0.76956164892699
O           28.05907627132404       -9.09573686015974       -0.90379248770733
C           27.47711970485486       -7.10927351168124        0.32950730180677
O           26.90258831995798       -7.92811900980412        1.26606200883266
C           27.49323719192617       -5.72469364377548        0.43986723016982
C           26.90292007543031       -2.81544296488063       -0.37636248559008
C           25.62875036302605       -3.44789867138236       -0.56380199887035
C           24.68443064202433       -2.48028774648403       -0.44739057632630
N           26.71367192794964       -1.47513988513444       -0.16638523403744
C           25.36998395182107       -1.25159879189987       -0.18557757197352
C           24.73315888967800       -0.01632689951910        0.03153664247225
C           25.40063499525127        1.20515882945300        0.23275257230786
C           24.74505915466912        2.45735611403534        0.45915430240585
C           25.71187373465559        3.40533773993010        0.54445460207908
C           26.97141796880509        2.73585971414655        0.38743687422649
N           26.74909302225269        1.39640836498128        0.20242999988080
C           28.21562839180260        3.36954594693537        0.38098511144303
C           28.23534225841913        4.84594763649301        0.55386045492908
C           27.79487446965593        5.42044063025342        1.74579144255318
C           27.81659398154780        6.80144035425279        1.90348296552659
O           27.39636298255776        7.37096411542332        3.05997158018783
C           28.27389209617992        7.61303226663540        0.86425771366833
O           28.28000629236355        8.97162503347097        1.04707708691413
C           28.71160332392025        7.03899889745606       -0.32630772502392
O           29.14308476789312        7.89956087112684       -1.30186933031097
C           28.69796702779190        5.65855948338049       -0.48426294600766
C           29.44486033259968        2.72537174911934        0.22564296864344
C           30.72877711068118        3.37164523229876        0.26497378872061
C           31.66772227766300        2.40274998944219        0.12788058214157
C           30.96735837976376        1.15593099941986        0.00964267274045
N           29.62166782678722        1.38066670250695        0.07005403451556
H           32.66257957364805       -0.09560556300454       -0.11850797394546
H           32.68093470388385       -2.70673341128480       -0.25508737816871
H           30.77992564141856       -4.59976281666673       -0.39433014390101
H           29.15763778870094       -4.99309762325653       -2.43701726178849
H           29.11422655200011       -8.53913146960512       -2.72847161996708
H           27.60127928804497       -9.46943162710755       -0.13397267543430
H           26.52159630496170       -7.41063867378446        1.98759969884298
H           27.04642247323680       -5.24701733045298        1.30396713261157
H           25.47958022556814       -4.49374271067665       -0.77842390785370
H           23.61643113316450       -2.58212647202389       -0.54375321626000
H           23.67926235366388        2.58884371909119        0.54354825257201
H           25.58546327016264        4.46524195280609        0.69421587152201
H           27.45026949081719        4.79961997065265        2.56264746550517
H           27.49109985124354        8.33416417853457        2.97624690743876
H           28.62420771338083        9.37986217317642        0.23677319917991
H           29.42101719011071        7.41407521799857       -2.08957582238098
H           29.02893088119768        5.21891563736687       -1.41789543645383
H           30.88506817699583        4.43050489730869        0.39546116321297
H           32.74121688396586        2.50804460914877        0.11432928002615
C           22.10405875149151       -0.00107435370641        0.03594229261392
C           23.32149686189724       -0.00196053114654        0.03595391365811
