128
 energy: -254.789535085818 gnorm: 0.000633823420 xtb: 6.5.1 (b24c23e)
Cu          13.37183947717715       -0.02258613802184       -0.01602920090722
C            9.96850812811946       -0.04293245072386       -0.14944346265021
C           10.60641762347066       -1.26207198978011       -0.32071549678715
C            9.93395175766603       -2.51652324625994       -0.50484138263846
C           10.89472169613984       -3.46387643872918       -0.63612701861672
C           12.16415296671649       -2.79341448179930       -0.54606987346659
N           11.95783002812039       -1.45979766205395       -0.34509459445517
C           13.41230431507828       -3.41713823838738       -0.62584465964163
C           13.43119837701330       -4.87516048696126       -0.88969612585701
C           14.00301112893073       -5.75411065581539        0.03550380029665
C           14.02335812867931       -7.11540926678453       -0.20682570284983
C           13.47062888762414       -7.60322743196414       -1.38773625403084
N           13.49242369622926       -9.03103818374262       -1.64910257255840
O           12.99803490772730       -9.41767476091489       -2.67721704723302
O           14.00380288084979       -9.74195230514549       -0.82209451346301
C           12.89770602745509       -6.74546095684358       -2.32258557437517
C           12.87857132734841       -5.38636257053358       -2.06816432831029
C           14.64436704216197       -2.77461249793181       -0.47975105401670
C           15.92501681182582       -3.40621345217383       -0.63063743604845
C           16.86619442364663       -2.45002135532768       -0.42799448446226
N           14.82581008410268       -1.44603344755692       -0.20303507382080
C           16.16860164097568       -1.22804182270972       -0.16140987573492
C           16.79926246102723        0.00000860213334        0.10650494716296
C           16.13607169639211        1.21913062407431        0.33184096742345
C           16.79681230990225        2.44982142796683        0.64749019148113
C           15.83082686411735        3.39295462390628        0.78487462344659
C           14.57250703666563        2.74472466306239        0.54332459569683
N           14.79079356780296        1.41908225007231        0.27939001594254
C           13.32460013840652        3.37057453098780        0.59894684573821
C           13.30203447526540        4.82799268601200        0.86686051162957
C           12.65746897014818        5.32551825349182        2.00377794557096
C           12.63223039528059        6.68404757934230        2.26058390633047
C           13.25280306164924        7.55500908995265        1.36937323397389
N           13.22597530107039        8.98255815401284        1.63190933113054
O           12.65730978551208        9.35648381192307        2.62576057507352
O           13.77387174259678        9.70600847452568        0.83990645870399
C           13.89791223559532        7.08077284684631        0.23055309794263
C           13.92180381107524        5.71983317642564       -0.01388552329006
C           12.09407809066404        2.73171252381137        0.42250351390068
C           10.81359508050917        3.38708853326188        0.41435073765412
C            9.87737247853024        2.42922805258631        0.20522695075907
C           10.57689556659299        1.18315473688271        0.07219534180505
N           11.91983660122783        1.39643135845091        0.20315605785129
H            8.88433027434562       -0.04908823267589       -0.19242675450349
H            8.86303491860015       -2.64308168583835       -0.51905790263681
H           10.76211132704789       -4.52551394597692       -0.76866559072492
H           14.41898656026169       -5.36334102705083        0.95682897469866
H           14.45948701318369       -7.80427424120929        0.50657516797141
H           12.47785073758339       -7.14969789196043       -3.23581761999097
H           12.44765943384425       -4.70707920389972       -2.79443365701133
H           16.08160522337435       -4.44392343621842       -0.87652005465158
H           17.93890817611373       -2.55234214290662       -0.46173771506496
H           17.86318481158834        2.56571356843206        0.75637524659112
H           15.95541336822653        4.43242517248841        1.04153041956916
H           12.18833587969621        4.63623362299381        2.69615588394219
H           12.14042146942764        7.07787053509870        3.14189562365962
H           14.36965671581874        7.77976882212232       -0.44955841031543
H           14.40977973935115        5.33946093451702       -0.90369403716585
H           10.65843143998740        4.44664689553661        0.53879008505805
H            8.80726453744625        2.54339611885978        0.13507970438400
Cu          31.96885667988506        0.02377222048162       -0.00677081361182
C           35.37218471481083        0.09383094265677       -0.12350797025661
C           34.73385513090702        1.28819269230145        0.17415063323553
C           35.40590857827193        2.52069835888669        0.47253897269169
C           34.44483392385660        3.44782240663205        0.70613968841527
C           33.17560883123900        2.79174595415624        0.53962471203310
N           33.38238339374129        1.48001538932627        0.22642807844135
C           31.92727988661285        3.39923830493224        0.70059802790029
C           31.90804028339053        4.84987123542887        1.00251329086997
C           31.33791782436188        5.31768254617240        2.19062301915615
C           31.31741463128639        6.67056728217956        2.47622848413608
C           31.86826531040347        7.56569058920130        1.56335604733118
N           31.84628060623286        8.98736672016998        1.85622137352453
O           32.34005992559297        9.73132276561639        1.04773973029125
O           31.33572366640148        9.33633850988600        2.88987646392441
C           32.43947321417802        7.12113311110853        0.37422905426527
C           32.45877606782680        5.76576036347952        0.10065955632243
C           30.69541723091103        2.74824625128862        0.59623800110562
C           29.41455374565989        3.38970955312445        0.69459484747915
C           28.47365765805380        2.42700661560948        0.52394608074637
N           30.51435353936023        1.41289539282916        0.35400740601089
C           29.17161418774392        1.19466650793060        0.31151106142129
C           28.54141908421368       -0.04435177875357        0.09848896279579
C           29.20507839382087       -1.25862002603187       -0.15034923406993
C           28.54469615323197       -2.51795611418918       -0.32004723908245
C           29.51098433420318       -3.44345944574272       -0.54635323199098
C           30.76911652416632       -2.75165461940183       -0.52628185987272
N           30.55042713990545       -1.42390840177442       -0.27350949863217
C           32.01721334751583       -3.35240482331122       -0.70879739707313
C           32.04014879377539       -4.80392514712156       -1.00717048256395
C           32.68296325372957       -5.69175210776915       -0.13879964045648
C           32.70849211740816       -7.04739073292170       -0.41047583699361
C           32.09005716921210       -7.52018838227035       -1.56457024452551
N           32.11722786331809       -8.94195165893656       -1.85682787642105
O           32.68473256752906       -9.66153003253629       -1.07513443397507
O           31.57094080171055       -9.31526095555820       -2.86334986316538
C           31.44673103344765       -6.65319879419435       -2.44345183957375
C           31.42244416029738       -5.29998819087066       -2.15935904134951
C           33.24754748000125       -2.69377938789124       -0.63227632680403
C           34.52824976405648       -3.29813290987728       -0.88476775819436
C           35.46416905858857       -2.33139756299618       -0.71979858739616
C           34.76423136643149       -1.12632392933584       -0.37681552081115
N           33.42135377292175       -1.37348403299185       -0.33549726867821
H           36.45634526640595        0.11607221423731       -0.16129605765129
H           36.47678776769860        2.64392583676168        0.50593650821995
H           34.57711257758860        4.48196222383745        0.98051544971122
H           30.92341564884070        4.60987611273408        2.89898215736113
H           30.88261952058987        7.04162191041337        3.39652873261440
H           32.85786608795782        7.83838404101399       -0.32159906191923
H           32.88836576893573        5.40839584148396       -0.82795285704948
H           29.25764077437395        4.44371696853313        0.85666342029027
H           27.40090485476539        2.53404409687036        0.53190567160782
H           27.47832888079369       -2.66648735218918       -0.26311002230807
H           29.38675527495228       -4.50327907344430       -0.69882491074415
H           33.15049967163394       -5.31267680182610        0.76247584625363
H           33.19889393262592       -7.74321887001792        0.25960723578078
H           30.97666124974999       -7.04584382465198       -3.33707002631330
H           30.93576281185793       -4.61343819202290       -2.84225920791843
H           34.68371387980671       -4.32721263927319       -1.16593599589885
H           36.53432988031181       -2.41071439929225       -0.82727287870798
C           18.20436689039231        0.00605031438708        0.14697000327089
C           19.42839939846100       -0.00172630232359        0.17458226615722
C           20.77108415870572       -0.01146423763899        0.19132252576351
C           22.00138625522850       -0.03279540825786        0.19691316795156
C           23.33930793628776       -0.04828990761194        0.19493554862846
C           24.56965399740138       -0.06500677413549        0.18419857752518
C           25.91223824428461       -0.07188559322986        0.15898396021816
C           27.13634040716924       -0.06641388514936        0.13375066246946
