510
 energy: -979.868422328848 gnorm: 0.000792950578 xtb: 6.5.1 (b24c23e)
C          110.78710732627417       -0.09818026306803        0.02645183977065
C          111.40075548995799       -1.30898892376555        0.31973719778007
C          110.75293295507205       -2.54744420317330        0.58900050748825
C          111.71759680657176       -3.48118566262697        0.84119221344607
C          112.98605209277333       -2.83963132397627        0.74613355219612
N          112.74451873407274       -1.53660240627795        0.41823054422784
C          114.25306330077116       -3.40801005878029        0.92488303604568
C          114.29388619627906       -4.83997267813426        1.30085346855444
C          114.94520449724831       -5.76468010606907        0.47816432574900
C          114.98286264570061       -7.10452104727640        0.81781732822543
C          114.36710283651995       -7.52439838992828        1.99355016445511
N          114.40237663354844       -8.93065693631367        2.35454058235868
O          114.98556090349285       -9.68138856171177        1.61525464191651
O          113.84540694875857       -9.25951593332196        3.37035252364236
C          113.71691696259441       -6.62013927533982        2.82844092885909
C          113.68103189528863       -5.28297401402012        2.47712422802468
C          115.46597577775650       -2.73012833220827        0.77321061866632
C          116.76574582976757       -3.32109079420212        1.03878714912593
C          117.68042626314133       -2.36555503931532        0.77494693726577
N          115.61218417965921       -1.43529454668629        0.38114199711616
C          116.93813399600890       -1.19125107058183        0.35804661660900
C          117.56834510370089        0.00783691882622       -0.03112036795183
C          116.92791114634858        1.20451990123556       -0.40440392361730
C          117.56768857835046        2.40326757531882       -0.81693332594409
C          116.59851468677535        3.33633333559841       -1.06117130236573
C          115.33609650971214        2.73651261833530       -0.79567229456242
N          115.58654218276394        1.44575873722768       -0.41376685871637
C          114.07042997703680        3.32095652099656       -0.92253679721055
C          114.03079218699720        4.74809910151196       -1.31345687603573
C          113.36671761381319        5.14365759623919       -2.47918326886596
C          113.32617092327575        6.47560074921094       -2.84841371999142
C          113.95196369317520        7.42310324915037       -2.04311101466920
N          113.91132062741676        8.82346746712168       -2.42498208518798
O          113.31387886662843        9.11011444415331       -3.43058133047953
O          114.47640045013249        9.61234562243183       -1.71160910113517
C          114.61687342970542        7.05124559141054       -0.87805619885302
C          114.65541611086938        5.71612131453790       -0.52022641993795
C          112.85633056274226        2.65849269357795       -0.70689921647875
C          111.54912053944498        3.29341628754847       -0.78461235261794
C          110.64196802536074        2.33230293490514       -0.52089252228428
C          111.39362545693686        1.11498825047009       -0.26921654325392
N          112.72433646603244        1.35234422950018       -0.37830863902632
H          109.70192660837230       -0.11108114270082        0.03168184239288
H          109.68470392692541       -2.69321924029615        0.58047940637421
H          111.56911498250517       -4.52519374177857        1.06416500526632
H          113.46800066219761       -0.84159126114835        0.26719241762865
H          115.40874605272334       -5.42725927883837       -0.44148785162987
H          115.47931150675251       -7.82883748361141        0.18334615538940
H          113.25041359008340       -6.97143841383338        3.74095651026796
H          113.19091437854449       -4.56758978441180        3.12721113628926
H          116.93372172699867       -4.32442012466560        1.39497527197878
H          118.75409052791778       -2.42203086216690        0.85486771793513
H          118.63416296211733        2.52527133432595       -0.91617838892509
H          116.74296875059173        4.34712839124825       -1.40593239629590
H          114.86631644483666        0.77073244108882       -0.17840075931210
H          112.89602222896667        4.39515970728454       -3.10576925733217
H          112.81915287861875        6.79022039387287       -3.75264982725985
H          115.09167546294194        7.80841162616912       -0.26571202297261
H          115.15631928772746        5.41695343944758        0.39315322708901
H          111.37432708101686        4.33560404449195       -0.99746373835511
H          109.56691472178331        2.41021235870192       -0.48348598239223
C          211.68117150447748        0.06253828024466       -0.03818101128510
C          211.06503150581747        1.24466696485595       -0.42748525596460
C          211.71083885933876        2.44226721289404       -0.84543713963530
C          210.74423637189079        3.36443662576337       -1.13059502786749
C          209.47644062171898        2.76260081553519       -0.88542611830481
N          209.72049491115280        1.48395303453382       -0.47411069665337
C          208.20834429211365        3.33195238454212       -1.05269804109490
C          208.16732856793786        4.74738499197675       -1.48759198637226
C          207.54039926499803        5.10023686222641       -2.68676638842838
C          207.50232733515418        6.41976898892228       -3.09875883830467
C          208.09276382218809        7.39705067315289       -2.30250370513793
N          208.05494641014576        8.78468892214343       -2.72948924375416
O          207.49692660425436        9.03370111419484       -3.76705867331530
O          208.58560977120985        9.60062927188527       -2.02018453468965
C          208.71961912204281        7.06761810729874       -1.10417852942471
C          208.75636051968218        5.74444212367701       -0.70374011529904
C          206.99598311150095        2.67062920378420       -0.83807572655106
C          205.69350993000654        3.30207461424217       -0.95687614767826
C          204.78097913203615        2.35148628052263       -0.66921130671138
N          206.85289098754265        1.36988313053956       -0.46461348848912
C          205.52707500472698        1.14544245497378       -0.36444536954338
C          204.89978780214227       -0.06732226095967       -0.01555624492883
C          205.54191042233606       -1.26904617581608        0.33756304503616
C          204.90329559267201       -2.49698259051023        0.65556316855661
C          205.87437034243212       -3.41664336673251        0.93931839039183
C          207.13716056286540       -2.77350901522861        0.81332335245742
N          206.88443684286969       -1.48054238105468        0.44016446882332
C          208.40458883087413       -3.33929314354103        0.99407865731572
C          208.44847417928648       -4.75823132473842        1.41406273935700
C          209.09005164251110       -5.70972357472613        0.61438888561185
C          209.13163134959663       -7.03777616975801        0.99706230073694
C          208.53016504997348       -7.41901125789222        2.19321050851275
N          208.57039260866114       -8.81241804633427        2.59986200014814
O          209.14268930785059       -9.58773083999476        1.87753354664450
O          208.02733872050678       -9.10731949589154        3.63358394247045
C          207.88964634242978       -6.48770228921240        3.00568534644098
C          207.84956692250344       -5.16282182888719        2.61141374443095
C          209.61752495057419       -2.66645686831695        0.80591508844042
C          210.92675023777670       -3.24881282218759        1.06037273873062
C          211.83198311281294       -2.29334064878070        0.77077017219192
C          211.07731767638822       -1.12547950779370        0.35028024496128
N          209.74674452160613       -1.38399439255003        0.39380994205947
H          212.76632824255120        0.07870192301658       -0.04040661691805
H          212.77917428620253        2.56665724958368       -0.92040554240350
H          210.89079368703995        4.37028590525354       -1.48913743008942
H          208.99813840637296        0.81054563952682       -0.24165486059739
H          207.09611490911720        4.32843840552515       -3.30432018942729
H          207.02422830887809        6.70184146424485       -4.02909155044639
H          209.16710281012476        7.84756927027772       -0.49991574802501
H          209.22845923844241        5.47781422500843        0.23470780937513
H          205.52190433462059        4.33569736952808       -1.20970884131572
H          203.70632897347429        2.43534048525576       -0.64846059578282
H          203.83619027695028       -2.64985781319179        0.65672406417967
H          205.73068348001473       -4.45215811956333        1.20102702367816
H          207.60415794347745       -0.78886965354445        0.25742778148048
H          209.54187038605264       -5.40314124515926       -0.32171795046987
H          209.62047939954860       -7.78254879224059        0.38059788426272
H          207.43417122812193       -6.80884783896534        3.93472639273773
H          207.36730429618180       -4.42642541901248        3.24370437429061
H          211.10391045140497       -4.24732747843772        1.42599804987160
H          212.90762809843966       -2.34064303274372        0.83365432988912
C          120.19624504008662        0.03020664395781       -0.07529145073028
C          118.97429143450921        0.02249816679216       -0.05342766377683
C          121.54524812396944        0.02981740618488       -0.09367325603685
C          122.76741132668374        0.02006188220008       -0.10668946449031
C          133.65037622819733       -0.02287443090459       -0.08471211135874
C          132.42781041779685       -0.02138485762034       -0.09213259741631
C          134.99867024133152       -0.02484678287918       -0.07913731295473
C          136.22130673835065       -0.03114351799867       -0.07489405916002
C          147.10510280726288       -0.04527750416870       -0.05445557356026
C          145.88248148489151       -0.04282167011752       -0.05609987573652
C          148.45336521944640       -0.04652778428788       -0.05627211803017
C          149.67599389244313       -0.04940772569261       -0.05882650984102
C          160.55955553954337       -0.04514247655534       -0.05237553719269
C          159.33692573359204       -0.04577406106284       -0.05339529452902
C          161.90780407595864       -0.04283301012198       -0.05393801100816
C          163.13044110166291       -0.04320401812448       -0.05753631266281
C          174.01393576035952       -0.04038420906604       -0.05477191689802
C          172.79131621539116       -0.04378780949769       -0.05899760732272
C          175.36220196397622       -0.03462773477649       -0.05052899351588
C          176.58484220999861       -0.03391069166388       -0.04633645014742
C          187.46790256022820       -0.03559544830143       -0.01203993077139
C          186.24532175685559       -0.03110676772297       -0.01589325731337
C          188.81620190933120       -0.04150624021236       -0.01121828397192
C          190.03874122111748       -0.05225981866417       -0.01117860035981
C          200.92218655011376       -0.12629922368316       -0.02492670690013
C          199.70006084607357       -0.12953869300959       -0.03139773338142
C          202.27153941931553       -0.11381012757933       -0.01947579099118
C          203.49339368375783       -0.09217469074459       -0.01677508610313
C          124.17264008580436        0.00934942416593       -0.11604405306252
C          124.80247532467234        1.02528964027252       -0.86040002794178
C          124.15625914102618        2.06327108215398       -1.57999514192929
C          125.12173146729144        2.81535628302171       -2.19168436516206
C          126.38586121609524        2.25110802065071       -1.86876587316595
N          126.14303492417793        1.18013156383356       -1.05232422570537
C          127.64789556324754        2.70129540991527       -2.27860895034239
C          127.66556589703987        3.85592927929807       -3.20737700578874
C          128.29968147258128        5.04738892052593       -2.84193279372716
C          128.31780177212059        6.12764589501148       -3.70523396926270
C          127.70031161385511        6.01440543722587       -4.94754538200435
N          127.71805678986445        7.14514717825163       -5.85936963365819
O          127.15965098228533        7.01539885046799       -6.91832159800326
O          128.28891453684938        8.14224147147232       -5.49933902148633
C          127.06551505908207        4.83677900680573       -5.33168091333452
C          127.04848853455722        3.76420922745037       -4.45883578044990
C          128.87146872128642        2.15395381368723       -1.88848289320423
C          130.15917795439069        2.60874486023720       -2.38288802687411
C          131.09211954682698        1.84994369771074       -1.77204642516984
N          129.04272683737344        1.12297555304353       -1.01603478619274
C          130.37262101783369        0.92672732104824       -0.91626172955570
C          131.02336570052032       -0.02061120052543       -0.10033919521941
C          130.39341516839622       -0.98165162309133        0.71396388134327
C          131.04026081813066       -1.92029348447920        1.55891862956716
C          130.07502057241433       -2.68401145494423        2.15590272422788
C          128.81018290401607       -2.23878602389343        1.68347105463599
N          129.05307777046005       -1.20120762686497        0.82427794156712
C          127.54819363666870       -2.73570436895866        2.03294461154835
C          127.52781076528002       -3.89212011841142        2.95928429425097
C          128.14557292307489       -5.09537670880515        2.60478138148619
C          128.12765897038389       -6.17593899438714        3.46787144759966
C          127.49098497630077       -6.05080009130727        4.69920561591415
N          127.47372457342480       -7.18111003687418        5.61171415667379
O          126.90643183965662       -7.03860757401548        6.66415657129999
O          128.02953306476857       -8.18953737379242        5.25972727247659
C          126.87142773409879       -4.86148650032567        5.07215329208589
C          126.89062475140034       -3.78869108078191        4.19979857604153
C          126.32462323327084       -2.23204323402882        1.58581150216689
C          125.03712129398491       -2.81739321328749        1.91583572754604
C          124.10415351469119       -2.05121458780872        1.31432455660637
C          124.82330122055228       -1.00709954846332        0.61105884064692
N          126.15394501145218       -1.14927206774694        0.77944481414169
H          123.08912162541063        2.21113467792907       -1.61661540983248
H          124.97255738996870        3.68978463546631       -2.80366078295216
H          126.86336393963434        0.59087694693918       -0.64832858324535
H          128.76583783188116        5.12695382848994       -1.86685995131269
H          128.80133461142651        7.05684146950359       -3.42867815061782
H          126.59656962048631        4.77252830937279       -6.30619504431772
H          126.56959103973831        2.83725556078176       -4.75221534110510
H          130.30756230158815        3.39117306997717       -3.10919384246899
H          132.16432669259027        1.88500189146164       -1.87966975611266
H          132.10757785457403       -1.99168667232674        1.69190904104418
H          130.22499105515072       -3.47855165269117        2.86832755881375
H          128.33233959855124       -0.67156307667017        0.34543130562430
H          128.62590465812323       -5.18546979024693        1.63740951965207
H          128.59789864659032       -7.11423442558676        3.19925930662962
H          126.38571874983482       -4.78872441380224        6.03778302332848
H          126.42314523662877       -2.85304034635959        4.48344981325770
H          124.88890742928585       -3.70241691521040        2.51286722157716
H          123.03207951131539       -2.16468142541111        1.32332529123441
C          137.62577169879137       -0.03280666117374       -0.07313483083721
C          138.25251158529159        0.96472795026121       -0.84521604988214
C          137.60219758887851        1.98119764055919       -1.59136259535457
C          138.56546798109679        2.73288366454465       -2.20683585940484
C          139.83238176769794        2.18876727825246       -1.86111145180540
N          139.59287202427603        1.12924952875587       -1.02846592254311
C          141.09362403361621        2.64739145918513       -2.26317911065610
C          141.10981977144985        3.79857236150886       -3.19638350031249
C          141.72872981237217        4.99654003330978       -2.82605713328872
C          141.74522586524455        6.07591765952129       -3.69039752956859
C          141.14138963909585        5.95518107396409       -4.93866047549128
N          141.15728227089997        7.08536774734548       -5.85147714265598
O          140.61577444993685        6.94734768639188       -6.91797825637850
O          141.71107282658789        8.08958852577796       -5.48477030964950
C          140.52233800161491        4.77092558608057       -5.32787997126541
C          140.50689438791895        3.69904284695900       -4.45399081060674
C          142.31896658575769        2.11307577129280       -1.86039305003139
C          143.60554179326607        2.57290481193301       -2.35295247798322
C          144.54079594811199        1.82089222716580       -1.73734369765681
N          142.49329810091393        1.08815279111526       -0.98156792307675
C          143.82401622331238        0.89837180168353       -0.87863068654084
C          144.47803547289575       -0.04214030422890       -0.05754624271317
C          143.85138983788289       -0.99327167786952        0.77098370065355
C          144.50155075269845       -1.92115538536768        1.62502475995892
C          143.53823007667734       -2.67116757743781        2.24233281317413
C          142.27136500298067       -2.22812213833476        1.77361766858136
N          142.51113819843295       -1.20618208106896        0.89514042415982
C          141.01030747891014       -2.71258879276429        2.14402696964982
C          140.99426474447515       -3.85008272999488        3.09396945935131
C          141.59805739576308       -5.06463704667638        2.75441739550584
C          141.58409143497613       -6.12810008114797        3.63855128581501
C          140.96575176827932       -5.97400634590320        4.87590848795630
N          140.95245334218575       -7.08651765333310        5.81027485896652
O          140.40023335714375       -6.91957314588666        6.86704854144653
O          141.49507671750166       -8.10599384367865        5.46986561548709
C          140.36057601934772       -4.77288817551391        5.23424016649958
C          140.37539354701337       -3.71739811533406        4.34082388681918
C          139.78482926383484       -2.21590006662270        1.69548455063277
C          138.49857220758872       -2.78983540561342        2.04939426041767
C          137.56323212555500       -2.04182195721495        1.42898518538007
C          138.27968417019821       -1.01989842148705        0.69121590105813
N          139.61049682197060       -1.15589159858019        0.85954507580789
H          136.53403137773850        2.11714897680153       -1.64093338809248
H          138.41249098430484        3.59427659849215       -2.83605936620811
H          140.31548793622670        0.55590346846545       -0.60606697538416
H          142.18429060196232        5.08151798775135       -1.84643284051792
H          142.21701763408393        7.01000864932143       -3.41009136778432
H          140.06383292885400        4.70109679087323       -6.30696283914591
H          140.04039369130487        2.76706340465751       -4.75134676473199
H          143.75162628749638        3.35318703220497       -3.08200143762727
H          145.61303315992294        1.86084050822837       -1.84264182253232
H          145.56964022202675       -1.99486170189954        1.75024699861917
H          143.69095080325610       -3.45487377414088        2.96608555819303
H          141.78861761235365       -0.68153340389486        0.41344887418048
H          142.06429743865269       -5.17694825585542        1.78249276736074
H          142.04342724345227       -7.07509355574169        3.38182833102488
H          139.88916247765903       -4.67764373846550        6.20501002361696
H          139.91873407832213       -2.77287062248668        4.61243664523901
H          138.35281254787475       -3.65611845547115        2.67388268004356
H          136.49111858442333       -2.15442878568536        1.44590932116072
C          151.08044918155807       -0.05027490892221       -0.06190600120611
C          151.70455127996649        0.94735284039047       -0.83588362513621
C          151.05177829850942        1.96241122151860       -1.58187298035732
C          152.01309651465326        2.71421838052347       -2.20016389095517
C          153.28129724937367        2.17191624129323       -1.85610863253731
N          153.04439142617323        1.11288368847650       -1.02203418696761
C          154.54120357232165        2.63243259976294       -2.26004151002555
C          154.55389157746171        3.78267959623268       -3.19449762861342
C          155.16972663513138        4.98280014828042       -2.82606857550725
C          155.18159304613519        6.06153045754617       -3.69132238566378
C          154.57634693998943        5.93791893158085       -4.93860491988880
N          154.58663157676665        7.06769885457572       -5.85204200923211
O          154.04492977692649        6.92672869232982       -6.91803055305765
O          155.13562938382705        8.07475432247016       -5.48596417426860
C          153.96084020036466        4.75129183104529       -5.32616688342679
C          153.94994025666259        3.68011100314584       -4.45137390166378
C          155.76802844114829        2.10112839601563       -1.85758545050965
C          157.05338409357785        2.56383873563217       -2.35057269233452
C          157.99054813814323        1.81408469613108       -1.73505525470650
N          155.94492459884100        1.07689168047131       -0.97855323604283
C          157.27616104307350        0.89018908841199       -0.87587198469728
C          157.93250498570961       -0.04848866688136       -0.05461851087757
C          157.30837479184990       -1.00025567532855        0.77508187840653
C          157.96090074526620       -1.92547289680303        1.63016799476462
C          156.99949500184772       -2.67777825963129        2.24773498777847
C          155.73161298369376       -2.23875396795876        1.77812077137384
N          155.96867309713474       -1.21670598224370        0.89914176435848
C          154.47186714221510       -2.72721291311366        2.14797078002955
C          154.45943547755940       -3.86612854765525        3.09630570846686
C          155.06570873659786       -5.07859269438826        2.75381018449430
C          155.05566861074988       -6.14355969332085        3.63617442096171
C          154.43891953510388       -5.99297379567964        4.87474342068785
N          154.42996227551174       -7.10701934684095        5.80735614082401
O          153.87877049867444       -6.94326743114631        6.86514681426973
O          154.97510713708056       -8.12435741886922        5.46463210990214
C          153.83131988494023       -4.79395659310075        5.23597487095937
C          153.84206100973134       -3.73698383273730        4.34423470792402
C          153.24517921924010       -2.23305862159181        1.70041879024520
C          151.96028186951915       -2.80961640962761        2.05500967992722
C          151.02298554861139       -2.06179437149254        1.43729707572057
C          151.73696700909622       -1.03769678826072        0.70001261231450
N          153.06809840535658       -1.17211044162543        0.86610376859091
H          149.98339224954421        2.09726014592928       -1.62952150225256
H          151.85809995754113        3.57465923248617       -2.83020626741907
H          153.76842130898737        0.54101718961051       -0.60005640345522
H          155.62632982736852        5.07007946934885       -1.84712421378657
H          155.65076380680122        6.99735371556871       -3.41239813129216
H          153.50128220707433        4.67919174444616       -6.30458015872925
H          153.48602515763383        2.74640256934789       -4.74733647906138
H          157.19757777481695        3.34449221636111       -3.07959964131375
H          159.06267499970690        1.85657527741856       -1.84051781472796
H          159.02914225664463       -1.99584851881729        1.75600309523677
H          157.15400676622085       -3.46029167299344        2.97241923244137
H          155.24486809977259       -0.69464259099672        0.41657893399644
H          155.53093193462269       -5.18803838215909        1.78107807799859
H          155.51692034965126       -7.08899774134822        3.37718646357871
H          153.36130604377340       -4.70144088945488        6.20768110389648
H          153.38344763425957       -2.79403354568090        4.61802618247789
H          151.81673436054410       -3.67714196465415        2.67831561310727
H          149.95107353938158       -2.17605117905521        1.45546489470628
C          164.53485599723939       -0.04291250751804       -0.05914663304537
C          165.15892041042790        0.95483098566616       -0.83302149293719
C          164.50618244416702        1.97198537782588       -1.57619209810797
C          165.46741552181263        2.72316903737133       -2.19538207920773
C          166.73542106950342        2.17798433686509       -1.85518202927663
N          166.49859178953923        1.11851887434746       -1.02160103404692
C          167.99507084966308        2.63541178284677       -2.26314947818353
C          168.00716929339819        3.78531834981954       -3.19806316044213
C          168.62545934179616        4.98474030418419       -2.83158398813221
C          168.63577501705279        6.06339943330799       -3.69696165187049
C          168.02669661335315        5.94026440312127       -4.94242110653562
N          168.03501580475191        7.07009546321728       -5.85583925407620
O          167.48858545291156        6.93007617931294       -6.91953045357001
O          168.58706360314045        8.07627017983781       -5.49195763864876
C          167.40902715457236        4.75417329811062       -5.32815890892879
C          167.39955346588852        3.68312978631911       -4.45319067781866
C          169.22189773729667        2.10147955773789       -1.86421888156039
C          170.50676941965213        2.56101435155331       -2.36130351588432
C          171.44419719293833        1.81118790324372       -1.74621529702511
N          169.39913840952619        1.07844303393792       -0.98389745006794
C          170.73034584912881        0.89022074425014       -0.88347194969823
C          171.38690609167770       -0.04743724407581       -0.06119440517499
C          170.76291553526426       -0.99942428683523        0.76835626395556
C          171.41584564388498       -1.92669433821788        1.62088392325013
C          170.45464364879751       -2.67851091058417        2.23936555949472
C          169.18641697267779       -2.23702923993709        1.77302122903153
N          169.42314854474944       -1.21460336941340        0.89441837674668
C          167.92663185990432       -2.72265925120817        2.14670148312452
C          167.91435691023119       -3.86111228246905        3.09552936887831
C          168.51791154684256       -5.07479138345557        2.75247622134854
C          168.50779226542576       -6.13931355792567        3.63537573506241
C          167.89359412045241       -5.98716050582772        4.87503364473094
N          167.88445962328919       -7.10074537151053        5.80816238570231
O          167.33679440190460       -6.93506726373035        6.86749372466410
O          168.42578320787916       -8.11973496429282        5.46425668648929
C          167.28867913232995       -4.78695040314259        5.23682588160571
C          167.29961826734399       -3.73038749673161        4.34462094474289
C          166.69972070175220       -2.22593391978219        1.70261539232259
C          165.41454550773832       -2.79934395708386        2.06148415591721
C          164.47718169134279       -2.05123525816987        1.44427404709597
C          165.19129257857136       -1.02972272543100        0.70351776846312
N          166.52255467489405       -1.16598459629288        0.86705682569192
H          163.43793203094427        2.10893338309020       -1.62093687520186
H          165.31259546107350        3.58504862428161       -2.82351370937176
H          167.22251863584677        0.54458422911783       -0.60227915526622
H          169.08508447205008        5.07157418422541       -1.85401142715087
H          169.10654392649352        6.99884743918789       -3.41946928217972
H          166.94659513343478        4.68241352873294       -6.30524126104770
H          166.93371047798260        2.74988204194167       -4.74756792764150
H          170.65029690027362        3.33977210937872       -3.09248746384553
H          172.51614250173915        1.85155575635773       -1.85439360893002
H          172.48423623405156       -1.99886588300899        1.74439146677263
H          170.60966756430838       -3.46231596260298        2.96252911377368
H          168.69911102922359       -0.69076629773992        0.41412951332567
H          168.98098361619520       -5.18556024396968        1.77886654793566
H          168.96703698787192       -7.08561943527967        3.37597433987947
H          166.82054334834442       -4.69320964983243        6.20932056609589
H          166.84322684252649       -2.78651771673885        4.61894387454101
H          165.27071332896622       -3.66517763005029        2.68705986451732
H          163.40508931927948       -2.16330258207262        1.46550989133667
C          177.98927022362139       -0.03263228635739       -0.04355067585164
C          178.61529104229410        0.96423835948355       -0.81690486489822
C          177.96421960800302        1.97734087555428       -1.56714473551024
C          178.92704423830025        2.72904115086264       -2.18315534021943
C          180.19455381310607        2.18854952997585       -1.83354517483555
N          179.95557854304053        1.13078678168804       -0.99831977487841
C          181.45537172214233        2.64904000961988       -2.23408980672555
C          181.47052137941776        3.79774046978317       -3.17046607769853
C          182.08315198695999        4.99928935517225       -2.80142659970010
C          182.09719253651440        6.07658191573188       -3.66845431188521
C          181.49747911848360        5.94999552666975       -4.91811685884979
N          181.50984334529556        7.07832993800138       -5.83333351848161
O          180.97241717382414        6.93495752940082       -6.90116581279686
O          182.05714260959354        8.08631057491215       -5.46723016677291
C          180.88538323757285        4.76182525640490       -5.30635897084671
C          180.87214531363884        3.69214837521455       -4.42975729664130
C          182.68126603588638        2.11852806297596       -1.82739860969927
C          183.96782943643174        2.58070056732090       -2.31757553740369
C          184.90339808060321        1.83114150713623       -1.69934706116484
N          182.85577460865514        1.09515279929693       -0.94702669445240
C          184.18681909529286        0.90795060216539       -0.84132998985250
C          184.84085097884719       -0.03121079816765       -0.01893027610435
C          184.21447852266448       -0.98245678098700        0.80976230982926
C          184.86509654453064       -1.90868476565414        1.66514496598715
C          183.90224490866780       -2.66004589414610        2.28168205794779
C          182.63536310638790       -2.21944639387090        1.81100808831894
N          182.87436184145031       -1.19746396802320        0.93256970143017
C          181.37453212609506       -2.70630513989840        2.17977867120843
C          181.35931749371778       -3.84488666700981        3.12834518143921
C          181.96641266152412       -5.05762657730090        2.78819900774838
C          181.95259177090651       -6.12259942287064        3.67051427032647
C          181.33103201406280       -5.97187310847769        4.90668652983084
N          181.31751330514720       -7.08606164953654        5.83900591386061
O          180.76160846250272       -6.92231975380546        6.89436736347881
O          181.86261802661161       -8.10403332771276        5.49800511705347
C          180.72273670573210       -4.77251608509697        5.26568385107113
C          180.73755872709140       -3.71547953849403        4.37411573901012
C          180.14904971110252       -2.21124384349146        1.73011320769435
C          178.86299517555176       -2.78638694686462        2.08305766503827
C          177.92749337395895       -2.03956516800986        1.46151740347186
C          178.64366933259447       -1.01737500183692        0.72363938422689
N          179.97426744513103       -1.15172041357599        0.89340994598991
H          176.89585931390241        2.11103840856477       -1.61875417552720
H          178.77360039364882        3.58815802356530       -2.81538892308108
H          180.67862458572276        0.56014544746396       -0.57300575899659
H          182.53552555567902        5.08881513225700       -1.82071949167929
H          182.56378890231858        7.01357088183482       -3.38910072425844
H          180.43022569697365        4.68738598417208       -6.28665971362167
H          180.41075252472518        2.75729674219077       -4.72606308183542
H          184.11380259716583        3.36082823036971       -3.04680796775563
H          185.97578477966752        1.87325513241672       -1.80236613297903
H          185.93313520115032       -1.98048279389557        1.79188580319470
H          184.05535469810877       -3.44295339074543        3.00621672706995
H          182.15153184816950       -0.67466542920166        0.44933866148190
H          182.43504715616911       -5.16741411674465        1.81713861728752
H          182.41442887469310       -7.06823247182948        3.41324033114324
H          180.24896814689075       -4.67982816545515        6.23554493225076
H          180.27857998335560       -2.77226430685159        4.64633066471079
H          178.71746700697412       -3.65259155944546        2.70772782985966
H          176.85547964318954       -2.15323831942366        1.47772644581961
C          191.44319297161690       -0.06476542229793       -0.01739043459876
C          192.07356813703598        0.92934242519814       -0.79060065965241
C          191.42706782936142        1.95083751216489       -1.53356835891513
C          192.39283508396974        2.69662417925813       -2.15194061708778
C          193.65774776860948        2.14468277314277       -1.81042585036077
N          193.41421125756310        1.08551126914613       -0.97820823391710
C          194.92002024751181        2.59925337364346       -2.21237172394196
C          194.93887256870724        3.74976394425737       -3.14655772842723
C          195.55712578956155        4.94854498967610       -2.77807319036920
C          195.57600044043733        6.02544488378737       -3.64557226938052
C          194.97528880111187        5.90129111162645       -4.89500559179581
N          194.99399947947703        7.02852850621165       -5.81137631292314
O          194.45796329385743        6.88617149806095       -6.88015266040099
O          195.54386309361988        8.03501929864311       -5.44513381350167
C          194.35646187379146        4.71625791136783       -5.28218501952430
C          194.33848249830584        3.64703739762144       -4.40516507693747
C          196.14409905373117        2.06066309124638       -1.80996754123644
C          197.43271493349999        2.52424594898174       -2.29358739621255
C          198.36527793869521        1.76570114738332       -1.68200722677611
N          196.31414755377028        1.02697557915490       -0.94132488041126
C          197.64488758258113        0.83340811253569       -0.83701984534444
C          198.29436628824359       -0.12695633387568       -0.03660621690987
C          197.66451232873342       -1.09532068531023        0.76840266479436
C          198.31216000490679       -2.04848873158157        1.59618669231024
C          197.34644317283755       -2.80154334856413        2.20596375379132
C          196.08029453908441       -2.33439614139373        1.75928829540181
N          196.32298579000584       -1.29830635726921        0.89881236408458
C          194.81719257075346       -2.80673108839278        2.13909086590115
C          194.79718491927815       -3.95655516606042        3.07405915089284
C          195.37469776314680       -5.17652252084187        2.70932284496932
C          195.35623700393364       -6.25119752913510        3.57974432738169
C          194.76016518700581       -6.10299814605659        4.82874184211118
N          194.74270457125203       -7.22702552645751        5.74889436168535
O          194.21027209642725       -7.06455544171951        6.81655433508896
O          195.26165151097555       -8.25141931153371        5.38673239112745
C          194.18155027167236       -4.89651061936549        5.21218319352454
C          194.20051038443253       -3.82982308621409        4.33232072833419
C          193.59346281921390       -2.28605033743686        1.71449845833978
C          192.30361293117645       -2.84399512453694        2.08116040967473
C          191.37129798898735       -2.07809798628856        1.47840792197821
C          192.09296677599895       -1.06132600995079        0.73825918898680
N          193.42346684009044       -1.21646227469532        0.88970455253653
H          190.35959661262504        2.09358810191836       -1.57903100382801
H          192.24340759943470        3.55939863478167       -2.78016152952275
H          194.13467754993263        0.50684146617874       -0.55942941533636
H          196.01034367255735        5.03632188052001       -1.79762502199871
H          196.04753532788641        6.96014745814616       -3.36690037434483
H          193.90010863427401        4.64377752708353       -6.26207458498064
H          193.87184857504096        2.71451664128776       -4.70064207604257
H          197.58214773384037        3.31196367183088       -3.01389808542512
H          199.43784897922495        1.80602363038518       -1.78327089540677
H          199.38050332429546       -2.13569639635906        1.71024238034090
H          197.49710040266905       -3.60236680712161        2.91118412918188
H          195.60173428513676       -0.75549670853775        0.43568432373357
H          195.82378999854291       -5.28388091989700        1.72880774657720
H          195.79501295553544       -7.20244233879034        3.30348117601677
H          193.72726225265089       -4.80598883014945        6.19152481143037
H          193.76460105374036       -2.88129329244358        4.62333239050322
H          192.15332384673206       -3.71253317927356        2.70147669194303
H          190.29797697867275       -2.17529901793999        1.50884794650914
