484
 energy: -937.038136671617 gnorm: 0.000594874178 xtb: 6.5.1 (b24c23e)
C           75.67107415352613       -0.32723536056355        0.13365464726652
C           76.28900152121604       -1.07482907353765       -0.86048983637944
C           75.64588819717564       -1.85502477847609       -1.86199866439935
C           76.61472413429696       -2.42374698658966       -2.63978106828986
C           77.88194130446804       -2.02254117950160       -2.12829329540871
N           77.63396904453846       -1.20130728186317       -1.06508287284118
C           79.15111447667387       -2.37563520818683       -2.60128261099477
C           79.20115415447985       -3.29417001385946       -3.76570413970606
C           79.81846162735745       -2.87647788416483       -4.94824430967320
C           79.85970477016863       -3.72884168254851       -6.04428507514121
O           80.43933570988020       -3.38570121988584       -7.23738824211745
C           79.29418986883223       -4.99910691695764       -5.96684380342484
O           79.32319008365221       -5.85996142870789       -7.03222446740166
C           78.68156875356304       -5.41910875636792       -4.78503692253138
O           78.13810783123103       -6.65887042539051       -4.71825115991485
C           78.63247345572785       -4.56579000395933       -3.68875321355607
C           80.35853044185416       -1.92883257444215       -2.05846748596942
C           81.66353039502407       -2.38779702234599       -2.49935241668965
C           82.57300525656572       -1.74112289066956       -1.74104829235780
N           80.49796859792386       -1.03382215536133       -1.04170483586947
C           81.82277800535546       -0.89080427542874       -0.83740847643401
C           82.44633991206761       -0.02970332476778        0.08907513333406
C           81.79747156859875        0.81479765428479        1.00987444237420
C           82.42650150751695        1.73071560331609        1.89425027979710
C           81.45043302852540        2.35148251990087        2.62320270216972
C           80.19432776519430        1.82197529528197        2.21602603140801
N           80.45594754867507        0.90664759931998        1.23013173748533
C           78.92757443326363        2.16014869747874        2.70341649085928
C           78.87165945272909        3.16336569358566        3.79454908217641
C           79.52227341765474        2.92762627902044        5.00615893333802
C           79.46322003316610        3.87146977614518        6.02492476861408
O           80.08557166634706        3.64842723713610        7.20799325100446
C           78.75795795686687        5.06050061649193        5.83188716461373
O           78.72036318764869        5.97379189102238        6.85236078944932
C           78.11102066465601        5.29715595265173        4.62157325599247
O           77.44275433726703        6.48757635104150        4.50430006362430
C           78.16220000139727        4.35283694288128        3.60419264954737
C           77.72301015435521        1.62153158112992        2.23608339835542
C           76.41883753015547        1.91280406174479        2.81095131967514
C           75.51868628302960        1.21148253194755        2.09253243654976
C           76.27188519771234        0.48758088822101        1.08413097936244
N           77.59658309701733        0.74882264371893        1.20888394386691
H           74.58747456315345       -0.38558877486255        0.15727728069105
H           74.57726202097686       -1.95292994308316       -1.96818648079134
H           76.46956187582271       -3.06146940284605       -3.49649915526180
H           78.35443497126475       -0.75105802974381       -0.51056335141268
H           80.24792353063437       -1.88412757266169       -5.01998957574355
H           80.81133839301097       -2.49499182462378       -7.19521526353204
H           79.78465965276439       -5.41696718728729       -7.76205390717447
H           78.27642745626589       -7.09919577428822       -5.57310393480104
H           78.17094267336039       -4.90989885823698       -2.77218720858359
H           81.83826741103209       -3.12066143776926       -3.27038407942045
H           83.64812418121586       -1.81912611110804       -1.76730909322755
H           83.49075328828945        1.89287056566729        1.95187922993067
H           81.58550196091204        3.11421391753736        3.37246955136346
H           79.74250629035461        0.37885588199439        0.73809111636813
H           80.05645826431552        2.00153533499472        5.17499012987600
H           79.92655241161980        4.41317940696273        7.78559559203776
H           78.19122628970457        6.73149053512141        6.55614604543802
H           77.02123064549544        6.56119572354378        3.63804050495576
H           77.66896486902107        4.55043815910523        2.65971961203804
H           76.24202314391439        2.55387627006794        3.65965653106087
H           74.44780386312145        1.16293669742172        2.21384177760511
C          193.92215309831423       -0.20407354948584        0.32381434225246
C          193.30661657593828        0.58389949519562        1.28775135362851
C          193.95168833209908        1.34802373774272        2.30033372940339
C          192.98530521460731        1.97698759969616        3.03347727507398
C          191.71735410521495        1.60526896447602        2.50187310092539
N          191.96288620888632        0.77502145323457        1.44510781083263
C          190.45026817530422        2.00286231059992        2.94409582515906
C          190.40501964268967        2.90077935333014        4.12486839879243
C          189.82195212093617        4.16590615025749        4.01028570319820
C          189.78627102469093        5.01214618279946        5.11132935936305
O          189.23953614209663        6.26790961487853        5.07220180396164
C          190.32336007372820        4.60228246939715        6.32905867566124
O          190.29912712447651        5.41662681795352        7.43065636825683
C          190.90191540286744        3.33740973733921        6.44590446090602
O          191.41808124455042        2.94613937544753        7.63649328235060
C          190.94541698745101        2.49101110280327        5.34408532882443
C          189.24191000089132        1.61505721131026        2.35968814470383
C          187.93639360279423        1.96289744501292        2.89142458657336
C          187.02607999511170        1.40352558757733        2.06753558578098
N          189.10147006512256        0.84760479442783        1.24362704542163
C          187.77617464160667        0.71230052679000        1.03698607503817
C          187.15236566372627        0.02176225314847       -0.02243760531453
C          187.80002043862277       -0.68872459263814       -1.05094637046540
C          187.17097049083989       -1.32470029369783       -2.15397475239308
C          188.14551049505275       -1.89864365955882       -2.92215104117940
C          189.40047624924370       -1.64309772594824       -2.30267980298983
N          189.14000856274905       -0.89833258846880       -1.18208332297992
C          190.66548998819280       -2.05017174605105       -2.73918796584405
C          190.71960296864890       -2.87015050728357       -3.97413724135044
C          190.05734197304068       -4.09655569910093       -4.03825793130254
C          190.11394730251442       -4.86017647197873       -5.19839846656542
O          189.48016501459884       -6.05600463037146       -5.26784104065341
C          190.82853913492519       -4.39481522360965       -6.30351879252554
O          190.86338085807273       -5.16709344046729       -7.43455113820426
C          191.48721818976566       -3.16944888001709       -6.24050933699856
O          192.16426509182247       -2.77692647486652       -7.36526833041609
C          191.43850186506933       -2.40737836912857       -5.08018308457822
C          191.86950843077528       -1.73971819013412       -2.09638807522064
C          193.17073084419579       -2.24213528995793       -2.50934874282306
C          194.07090512941892       -1.72701124281645       -1.64761778864338
C          193.32052983302074       -0.91621887709476       -0.70538342371660
N          191.99753655623428       -0.95655198013185       -0.99952694475252
H          195.00449145546870       -0.25800427031101        0.38539772042811
H          195.02004426797430        1.40695819624128        2.43441867205731
H          193.13263010507288        2.64497902816586        3.86644236703824
H          191.24170633649857        0.36271771756668        0.86271382979826
H          189.41501026297968        4.49683174036298        3.06201677366724
H          188.88478974111928        6.46099294398751        4.19447871063608
H          189.86237832476999        6.24607496066661        7.17947620108108
H          191.28862447416458        3.66556154452618        8.27636297854314
H          191.38053772530654        1.50584288176860        5.45196845782658
H          187.76130192457617        2.53956010431152        3.78524931246176
H          185.95026522645645        1.43522804059325        2.13310277118633
H          186.10790937973456       -1.32898730753878       -2.33312212023150
H          188.01026007332865       -2.44510389427913       -3.84109871093205
H          189.85320642721936       -0.55385036006443       -0.54778786558432
H          189.51549072076494       -4.47689800862860       -3.18196744992052
H          189.63796646350417       -6.43474381814246       -6.14841114604657
H          191.39883579458476       -4.70262594619549       -8.09740606769912
H          192.59231540956671       -1.92173464636924       -7.22775113028047
H          191.94096223936606       -1.44791935781316       -5.04363517547600
H          193.34547464508364       -2.91126711186391       -3.33655554136304
H          195.13996715689663       -1.86959216618311       -1.62212393572637
C           83.85142191201223        0.00403875149415        0.09612234238872
C           85.07611102653686        0.02163566353954        0.10036851364206
C           86.41856433074040        0.03270448233275        0.10070940050700
C           87.64944577195237        0.03477863390093        0.09568436481118
C           88.98712122217904        0.03360072040247        0.08623761189443
C           90.21802733275987        0.02880924713045        0.07371439683957
C           91.56023771320322        0.02381264280328        0.06103915480464
C           92.78516046801643        0.01932786211809        0.04745206616594
C          102.44661383964832        0.00922107871958        0.04432819800918
C          103.67194952395475        0.00742585119882        0.05282390689927
C          105.01341122627697        0.00350163408074        0.05796554408048
C          106.24480082922545        0.00027799599516        0.05991660424938
C          107.58161644217941       -0.00278572894118        0.06010082572179
C          108.81302884510767       -0.00628360314328        0.05631313580151
C          110.15447990801808       -0.00748395760597        0.04986753450457
C          111.37985017460086       -0.00506425969152        0.04177970869114
C          121.03926050918672        0.01367618483343        0.04815893253286
C          122.26459342386921        0.01329083738167        0.05698772169127
C          123.60597981839631        0.00953567619505        0.06255213056626
C          124.83737087551656        0.00471778281902        0.06428942891333
C          126.17411086793059       -0.00024370430070        0.06320994458168
C          127.40551904362340       -0.00523784439832        0.05833882716616
C          128.74690862807861       -0.00824518077681        0.05063266880821
C          129.97227657592035       -0.00660793188273        0.04102648091989
C          139.63061163788171        0.01533385851680        0.04781505284869
C          140.85596340887227        0.01528748950787        0.05618279848264
C          142.19734963449332        0.01064135858361        0.06222718100728
C          143.42875573608688        0.00497741545395        0.06343248123059
C          144.76547476294698       -0.00109338520783        0.06159227707074
C          145.99686739940361       -0.00562651319726        0.05695111261406
C          147.33824365977486       -0.00937360528863        0.05001107448714
C          148.56362640299852       -0.00978655208129        0.04196725515998
C          158.22254617462244        0.00787504676299        0.06502875476228
C          159.44781114170431        0.00897353944883        0.07678191569483
C          160.78925549656088        0.00241892807165        0.08346046160953
C          162.02063140389120        0.00042291373237        0.08450925345459
C          163.35741550636641       -0.00228688797378        0.07949063964272
C          164.58881780184362       -0.00040263682841        0.07245464811813
C          165.93021804121850       -0.00102915897141        0.05966740396574
C          167.15549761583637        0.00218310913883        0.04331059720410
C          176.81426679124834        0.05010381047551       -0.13240449581515
C          178.03918861053339        0.05663346801882       -0.14039881458208
C          179.38155822688304        0.05764395132828       -0.14688227268889
C          180.61247085446277        0.06044120514888       -0.14810293832256
C          181.95024533084674        0.05801146298062       -0.14160149137226
C          183.18099718914002        0.05555750325116       -0.12748262292016
C          184.52333065673025        0.04958071831475       -0.10195208329233
C          185.74763777636431        0.04099348914291       -0.07014838405927
C           94.18959706343534        0.01627249496187        0.03341931772555
C           94.81346844026692       -1.24658341158667        0.02197706484488
C           94.16128090371245       -2.50583070761832        0.05350849435294
C           95.12264243955715       -3.47868741781949        0.00780156014938
C           96.39031671027699       -2.83993779536894       -0.06172726682410
N           96.15284604498163       -1.49138969219977       -0.03952950335188
C           97.64782091922976       -3.45424678804707       -0.12483327066304
C           97.65728366840749       -4.93676151813822       -0.18796383258065
C           98.28599432631644       -5.67953353730119        0.81208410892643
C           98.30140056422825       -7.07095510955301        0.76900478944921
O           98.90182025844392       -7.80464974056417        1.74161090020626
C           97.68699010790179       -7.73890310005372       -0.29542730568027
O           97.69009011940246       -9.09481445210380       -0.36902019424174
C           97.06267928442188       -6.98796764816438       -1.29506527805172
O           96.48458165167293       -7.70337360129619       -2.31175061203574
C           97.03691468988578       -5.60108661287941       -1.24796591147855
C           98.87367705708027       -2.78666406921625       -0.13194288452361
C          100.15787175450576       -3.45159735882500       -0.26171362935451
C          101.09678254000558       -2.48396928120168       -0.21179957263367
N           99.05345371844399       -1.44009057870820       -0.03120555653893
C          100.38447955254395       -1.23041948165574       -0.06467209299801
C          101.04302069048981        0.01268776673445        0.03406469923702
C          100.41903865051465        1.27270186251134        0.11908639065023
C          101.07138545014809        2.52644840025418        0.24387976248077
C          100.11043084787086        3.49983115892323        0.26973183058143
C           98.84248496322967        2.86783596767735        0.15266282201793
N           99.07992682636920        1.52100185529367        0.07657134745599
C           97.58554620796541        3.48451026086251        0.13324658366330
C           97.57570354966784        4.96827214601173        0.18094822535102
C           98.19745131232612        5.70634087918708       -0.82669519756102
C           98.18325738239585        7.09560716425279       -0.78362308981539
O           98.77707411370132        7.82139187693063       -1.76185641578999
C           97.55321870184154        7.75205398308983        0.27496326872040
O           97.55848748363914        9.12170593258405        0.29291961672309
C           96.93684074820692        7.01502790817589        1.28317570434604
O           96.34393182582947        7.72884447711084        2.29090418642514
C           96.94265738503159        5.62650351996491        1.23891526724764
C           96.35929044023906        2.81914819691486        0.07439225919474
C           95.07538301428387        3.49218896112494       -0.00729938254595
C           94.13603732536200        2.52381428610276       -0.02780434316923
C           94.84778393352055        1.26271034860018        0.02769959246082
N           96.17940929081489        1.46948326394638        0.07671255889874
H           93.09331686081309       -2.64158662193311        0.10998189231188
H           94.96854162770573       -4.54511989119744        0.03131294454688
H           96.87635560655242       -0.78039359616521       -0.05771716224187
H           98.75400362444280       -5.17229477343228        1.64818796709285
H           99.29406329067896       -7.23537063480891        2.41663206941144
H           97.21871602433278       -9.35644111379712       -1.17641461904676
H           96.08523900275138       -7.11411000267560       -2.96471069801331
H           96.55948567044412       -5.04174385755718       -2.04397672157569
H          100.30036020345518       -4.51246628309235       -0.38866380426443
H          102.16861217110426       -2.58177365246032       -0.27676156034552
H          102.13938996108490        2.65753069092133        0.30941512201392
H          100.26436972705544        4.56176889877872        0.36943292317419
H           98.35668452841747        0.81341430421616        0.00279791338022
H           98.67460276178825        5.20854648582243       -1.66100567846406
H           98.65795858242900        8.76380654007141       -1.55828554815071
H           97.07969551321489        9.41249227185492        1.08544650427163
H           95.93623294844870        7.13798816764883        2.93762115266979
H           96.47324433094285        5.05931398848701        2.03402108364076
H           94.93310570542533        4.55950948916287       -0.05771594145356
H           93.06426638082688        2.62646123736191       -0.08615046621852
C          112.78336989167758       -0.00335477988425        0.03218684584684
C          113.41131369313337       -1.26466668908162        0.03196957378464
C          112.76279610274457       -2.52544451933456        0.07196707217778
C          113.72695592308685       -3.49582551775897        0.03049091315432
C          114.99253219255638       -2.85381097978864       -0.04473679925318
N          114.75114237482244       -1.50574384619100       -0.02909790627483
C          116.25163213861009       -3.46472172813235       -0.10845119879820
C          116.26471882850986       -4.94723087377659       -0.16871544094131
C          116.89827857525532       -5.68710188104033        0.83041474751021
C          116.91607148596049       -7.07857209324886        0.78955359260528
O          117.52087417201562       -7.80960012485673        1.76144119290205
C          116.29937938981533       -7.74946260698714       -0.27171623044257
O          116.30460904350879       -9.10540989901365       -0.34290668705035
C          115.67043152736994       -7.00137841413160       -1.27064183839108
O          115.09041684574983       -7.71956871898329       -2.28413052822239
C          115.64214927090335       -5.61450979560583       -1.22562664352099
C          117.47542100457439       -2.79336696473373       -0.11976531353774
C          118.76152787384760       -3.45436524039002       -0.24970241204079
C          119.69734076708625       -2.48353334996836       -0.20313240497612
N          117.65083442984974       -1.44594483368179       -0.02259788681784
C          118.98115127604711       -1.23199202002603       -0.05810491439423
C          119.63575828316687        0.01345949117166        0.03763312127488
C          119.00810190676982        1.27197464404545        0.11916073336134
C          119.65684814489457        2.52765132825881        0.24217255854246
C          118.69316513176527        3.49856395759887        0.26430867849975
C          117.42727258088654        2.86292449996101        0.14627034299702
N          117.66838748865179        1.51660805060359        0.07385302893265
C          116.16836294532621        3.47604441941903        0.12187976270378
C          116.15396914835591        4.95981589491780        0.16590267876580
C          116.77899409897198        5.69774838238659       -0.83983669416301
C          116.76075215338849        7.08706168973964       -0.79948071526358
O          117.35790538897083        7.81254130633737       -1.77580921359800
C          116.12321710666581        7.74381102596138        0.25445658932807
O          116.12474185446190        9.11342677614776        0.26984393894700
C          115.50339408800885        7.00696063456187        1.26069435772881
O          114.90310288495147        7.72100167167887        2.26388203327502
C          115.51334974107888        5.61838293630336        1.21914934633026
C          114.94454641727576        2.80681966923301        0.06162678030778
C          113.65883304389085        3.47527775730577       -0.02812238347671
C          112.72261808509496        2.50380880213716       -0.04697278276165
C          113.43818031207186        1.24533393575549        0.01815541610153
N          114.76861966585531        1.45625260547410        0.07036574124462
H          111.69531953506942       -2.66402487638935        0.13053528138056
H          113.57596079381996       -4.56253394538133        0.06036400153771
H          115.47254900370150       -0.79279470280191       -0.05318456399056
H          117.36792808760043       -5.17764887034413        1.66424465840235
H          117.91454873169864       -7.23860075792666        2.43414506171772
H          115.83096573449781       -9.36938254387044       -1.14822192255751
H          114.68764748145639       -7.13235494251426       -2.93686184546871
H          115.16103104026173       -5.05732639969131       -2.02092871989011
H          118.90731972258676       -4.51505114926330       -0.37436990972746
H          120.76939311194238       -2.57804337721696       -0.26920944072170
H          120.72438370709477        2.66177092282189        0.30915874016304
H          118.84420279751427        4.56109823815654        0.36199142637508
H          116.94704509605670        0.80705270020141        0.00039206452671
H          117.26179650740492        5.19980602841467       -1.67079568224510
H          117.23467432910616        8.75506659694023       -1.57517572979931
H          115.64025600242280        9.40458300845660        1.05877170046023
H          114.49266298020846        7.13025884861231        2.90897115482529
H          115.04134861772887        5.05143728387425        2.01290419984494
H          113.51340155379674        4.54184719532346       -0.08488514645219
H          111.65074581954252        2.60273548785167       -0.10960133358451
C          131.37573892863654       -0.00495376078372        0.03071845343553
C          132.00396254614770       -1.26610446059811        0.02985183326330
C          131.35568470397402       -2.52706539730874        0.06905685179804
C          132.32004696992021       -3.49722836009804        0.02737941136811
C          133.58552933428246       -2.85491651472685       -0.04711901704602
N          133.34382330000182       -1.50686956334365       -0.03106151365636
C          134.84485334579756       -3.46534990775827       -0.11009450415484
C          134.85888527431081       -4.94782643238229       -0.17046165402001
C          135.49303521032496       -5.68727593097991        0.82863201374609
C          135.51228856354058       -7.07871029004365        0.78751215856876
O          136.11783141694019       -7.80929068321382        1.75927348525447
C          134.89638064929429       -7.75003524369771       -0.27394176833717
O          134.90311943887659       -9.10594750405334       -0.34543304659129
C          134.26669858529411       -7.00239941430694       -1.27274676942060
O          133.68752376296092       -7.72101999386006       -2.28640041090368
C          134.23702561471475       -5.61556085116488       -1.22750994538097
C          136.06834755508808       -2.79331644502943       -0.12045823693752
C          137.35490380912455       -3.45357207567713       -0.24943632264809
C          138.29011982670823       -2.48218523637292       -0.20235212419284
N          136.24289272454706       -1.44579892962913       -0.02331736035625
C          137.57312769492518       -1.23103680436398       -0.05808868686779
C          138.22710773147756        0.01475923558705        0.03730555503589
C          137.59910855094412        1.27315447210851        0.11813245980302
C          138.24752650867808        2.52904259532039        0.24062838644559
C          137.28360127783239        3.49975515316946        0.26220091745239
C          136.01792055066119        2.86372551967458        0.14437176989894
N          136.25933361077909        1.51746167116591        0.07255059599599
C          134.75874710258782        3.47638072044350        0.11985572547083
C          134.74349577391274        4.96014119891987        0.16382757163850
C          135.36773670642495        5.69853153972040       -0.84204970845148
C          135.34829818404111        7.08783926370025       -0.80176957099723
O          135.94456550553971        7.81377386910029       -1.77829055818582
C          134.71041605309674        7.74411150803628        0.25225798690313
O          134.71072470238411        9.11372744688897        0.26752840701027
C          134.09145352613814        7.00679444958482        1.25868184708686
O          133.49074072794093        7.72036638006242        2.26195296964689
C          134.10255793383178        5.61822760805567        1.21718654035236
C          133.53536189134664        2.80649038474447        0.05974290054341
C          132.24924042970403        3.47417468888943       -0.02988899374392
C          131.31362570516254        2.50214714135691       -0.04848650272950
C          132.02998258496035        1.24408587228420        0.01662006966538
N          133.36023281182142        1.45576348120952        0.06858014890245
H          130.28821043355171       -2.66585918028109        0.12722917300898
H          132.16927613257920       -4.56399173093026        0.05667242723447
H          134.06517166933196       -0.79383790220053       -0.05460770570814
H          135.96208454368019       -5.17751374479788        1.66260928699665
H          136.51124968069792       -7.23801123210028        2.43188588014394
H          134.42996266952346       -9.37028902342936       -1.15091824335662
H          133.28433733314716       -7.13415123538415       -2.93918475760450
H          133.75550022144748       -5.05875064797296       -2.02282826226309
H          137.50146481551505       -4.51417065289420       -0.37389718470800
H          139.36226441976342       -2.57612627498381       -0.26762411494241
H          139.31502038283000        2.66344692787558        0.30767207641141
H          137.43433026680270        4.56238729855939        0.35933423904099
H          135.53809868503836        0.80776754504242       -0.00071142543979
H          135.85077141340361        5.20096385522971       -1.67309643003742
H          135.82049533754977        8.75621136325017       -1.57775282064605
H          134.22612665899865        9.40453109990031        1.05651264519391
H          133.08109418314785        7.12929524856502        2.90724177895320
H          133.63115484339545        5.05091907816917        2.01103896603302
H          132.10315591700163        4.54064832915454       -0.08673837882248
H          130.24169153941006        2.60046406148244       -0.11098245862339
C          149.96706391058930       -0.00881300650469        0.03210502540842
C          150.59482320934637       -1.27016161064638        0.03271559945149
C          149.94612982207931       -2.53090468510770        0.07212719053981
C          150.91019885454944       -3.50135468108378        0.03086386678876
C          152.17594932542499       -2.85947472466041       -0.04338364505857
N          151.93462300481281       -1.51133462088257       -0.02754534108509
C          153.43502484860201       -3.47035153439574       -0.10613986665794
C          153.44826647520088       -4.95274299975581       -0.16798432498950
C          154.08232689169307       -5.69365159539096        0.83008855608609
C          154.10064199489776       -7.08505145183390        0.78754899052269
O          154.70614449395734       -7.81699642332196        1.75831155815981
C          153.48374876318354       -7.75489885764973       -0.27426292941533
O          153.48942184451394       -9.11075446342494       -0.34708045923902
C          152.85414352815448       -7.00582970392464       -1.27203866206904
O          152.27393126373420       -7.72303654835893       -2.28612261202604
C          152.82549736430522       -5.61902551626156       -1.22543369047798
C          154.65894429167679       -2.79888576652595       -0.11475101623438
C          155.94529388268361       -3.45965333420348       -0.24306117504304
C          156.88102704778757       -2.48889496147016       -0.19279690667693
N          154.83409171585410       -1.45166696459281       -0.01539090880141
C          156.16458488890260       -1.23758399262271       -0.04765704502443
C          156.81902382586267        0.00771243707406        0.05072318733643
C          156.19124483817907        1.26626031076460        0.13106786396006
C          156.83971890126799        2.52186448238533        0.25580825437443
C          155.87607695438632        3.49294744732725        0.27432801303059
C          154.61055760218883        2.85738975375258        0.15252914917557
N          154.85165807125017        1.51107028439369        0.08152171642115
C          153.35171380714141        3.47068147975021        0.12384692131789
C          153.33728012407011        4.95448549979559        0.16676350603696
C          153.96488134431098        5.69180353672766       -0.83780441950131
C          153.94648662491679        7.08114778516532       -0.79832536386258
O          154.54608000459282        7.80608053204909       -1.77357014759479
C          153.30625979653553        7.73851834005027        0.25358905931912
O          153.30777672906805        9.10816197215387        0.26820795297834
C          152.68384083283328        7.00226651674500        1.25865084963392
O          152.08090851739095        7.71685618225737        2.25988188610513
C          152.69392153489895        5.61367182583715        1.21794799408458
C          152.12815896101282        2.80149245898764        0.06108405298443
C          150.84258743658765        3.46981112565652       -0.03198173878669
C          149.90643451103955        2.49831294138780       -0.05084307173069
C          150.62196366461205        1.23991282462244        0.01721007582790
N          151.95219397656254        1.45084349885673        0.07118600291912
H          148.87859045476935       -2.66933873874877        0.13002708687518
H          150.75906423682147       -4.56805286994751        0.06041960077674
H          152.65612973998196       -0.79846194673532       -0.05080336262647
H          154.55200132017274       -5.18505656789260        1.66442442492292
H          155.10051063752081       -7.24659393816236        2.43111685224075
H          153.01566450850967       -9.37391494626424       -1.15259506996210
H          151.87086854642092       -7.13519560121819       -2.93810684372051
H          152.34401160964759       -5.06110368035810       -2.01999763340947
H          156.09144949062676       -4.52010279439182       -0.36926354389264
H          157.95321604099925       -2.58333802899295       -0.25660834387567
H          157.90704228757983        2.65588771078199        0.32623683395691
H          156.02688512418561        4.55552476933803        0.37192466209886
H          154.13043782009728        0.80159129742491        0.00608014597682
H          154.44987075153213        5.19337825526401       -1.66719632057504
H          154.42243484731569        8.74871763450073       -1.57372101448211
H          152.82147744337934        9.39973711083634        1.05585649567437
H          151.66908416725400        7.12639082413704        2.90434087172024
H          152.21985142284964        5.04716897914594        2.01078713448310
H          150.69723527612334        4.53629374339875       -0.09063561638723
H          148.83467379212084        2.59717279516473       -0.11547337322932
C          168.55882207395103        0.00757392288948        0.01862158041565
C          169.19038885540851       -1.25182063841080        0.01489548608688
C          168.54684133007117       -2.51428798106035        0.07800034633574
C          169.51308309334914       -3.48193616662987        0.02570093816544
C          170.77494712180771       -2.83677992662563       -0.08180383367207
N          170.52942854343419       -1.48924198425465       -0.07089117170304
C          172.03395273818083       -3.44360374329642       -0.17406231643215
C          172.05175736240201       -4.92634233948315       -0.22247262135519
C          172.72021918050996       -5.65410872572865        0.76283175470314
C          172.74141284405326       -7.04582439696283        0.73569792514027
O          173.37980385744262       -7.76496134870175        1.69485144618077
C          172.09238361251326       -7.72950894375317       -0.29777729692555
O          172.09903848512229       -9.08612796009134       -0.35477304838385
C          171.42920334737400       -6.99363561459313       -1.28353207162904
O          170.81865490850475       -7.72397839474783       -2.27012029959549
C          171.39797497964929       -5.60647173841862       -1.25203734787335
C          173.25472556322674       -2.76741573757558       -0.22377066163189
C          174.53851846992350       -3.42416852472877       -0.39292861589052
C          175.47218835747304       -2.45033065010070       -0.37381550701011
N          173.42820684198364       -1.42000930285807       -0.13126147954466
C          174.75691074222630       -1.20140709498190       -0.20436532487585
C          175.40974947163710        0.04458592107120       -0.11300837024998
C          174.78076167507294        1.29965434494188       -0.00053269695744
C          175.42835738301707        2.55569416349807        0.12570990900534
C          174.46271078869847        3.52330714510811        0.18007186948640
C          173.19644082754405        2.88547512585980        0.07844690410882
N          173.43952412027255        1.54108163581270       -0.01557492951111
C          171.93552548473320        3.49515445535973        0.08209536605020
C          171.91673753769422        4.97812872091153        0.14577443449093
C          172.52415693912010        5.73261954497424       -0.85843526430229
C          172.50119231532781        7.12114584514092       -0.79809057527761
O          173.08117739242809        7.86292603915920       -1.77267193131676
C          171.87664734299418        7.76044359419099        0.27415809648755
O          171.87319568652777        9.12981151538370        0.30896815360277
C          171.27420760547787        7.00706141534758        1.27868291607905
O          170.68568526097690        7.70443717497056        2.30046135941040
C          171.28881659089899        5.61930493042134        1.21726950285815
C          170.71300237813429        2.82298161483507        0.03222049685905
C          169.42455443107860        3.48879252705989       -0.03708095169383
C          168.49066576054852        2.51506680778852       -0.05223477152512
C          169.21016720808498        1.25799128211591       -0.00288072138244
N          170.54051286560872        1.47193115984248        0.03370458821114
H          167.48122782779777       -2.65560459035376        0.15969810669366
H          169.36596092098188       -4.54874793193931        0.06840865823782
H          171.24787370751233       -0.77425524639460       -0.11478898748167
H          173.21493323511123       -5.13467321705594        1.57574381248926
H          173.79538415026698       -7.18587532604543        2.34716319771004
H          171.60085099656663       -9.35971070638777       -1.14186435192532
H          170.39358974113767       -7.14455827781732       -2.91563956185305
H          170.88987536036254       -5.05912465813827       -2.03733133867969
H          174.68368944822495       -4.48423502922030       -0.52349484792066
H          176.54206960562567       -2.54112792331418       -0.47222506117019
H          176.49665589392458        2.69215140740807        0.17291421002016
H          174.61278710169438        4.58493066319963        0.28859658522086
H          172.71875933913873        0.83034274520212       -0.08308409506165
H          172.99657534889320        5.24842098466373       -1.70336075657755
H          172.95715499934477        8.80192036808361       -1.55659646232248
H          171.39933917191456        9.40758471732769        1.10909498006784
H          170.28762394498878        7.10278560339410        2.94323845350515
H          170.83021376277426        5.03925923568311        2.00942346896880
H          169.27596680194708        4.55539164424019       -0.08471409921533
H          167.41787371870709        2.61163234695164       -0.10146418625967
