322
 energy: -492.723880194153 gnorm: 0.000626367733 xtb: 6.5.1 (b24c23e)
C           38.81537926739205       -0.14565733024425       -0.02560024228477
C           39.44697932850747       -1.38165818195830       -0.07770801751024
C           38.82869297723248       -2.66217761940927       -0.14520444262389
C           39.81719065896766       -3.60504788916810       -0.18647802114888
C           41.07067399554278       -2.93012678290927       -0.14406371849806
N           40.79685288970906       -1.59361507992920       -0.07822606378127
C           42.34209992926909       -3.50885638951449       -0.16315418724411
C           42.38694696583962       -4.99844147147927       -0.24940043377994
C           42.39756067643579       -5.62289068319570       -1.49992559742623
C           42.37525483236924       -4.79253355578438       -2.75559419144945
C           42.42951063795011       -7.01071744901738       -1.57063446222602
C           42.45180090024971       -7.78489259692659       -0.41527172676723
C           42.46235908894409       -9.28710710854945       -0.50380560505534
C           42.44272554601341       -7.15271619562861        0.82389617344640
C           42.41098043666296       -5.76635483495688        0.91830822182044
C           42.40293487945139       -5.08993676215159        2.26329521115892
C           43.55083422488273       -2.81719598366422       -0.11128382045708
C           44.84757998131157       -3.46999083290342       -0.12679806859738
C           45.77020780322625       -2.48752034492529       -0.06190638516005
N           43.70710365511957       -1.46591418167685       -0.03962819134216
C           45.03484170537131       -1.23810544168705       -0.00977516071080
C           45.66614689305012        0.02186455450827        0.05427899746205
C           45.00899631178411        1.26610868829239        0.09707145927284
C           45.62151003706747        2.54635855695356        0.15885756377058
C           44.62937595275002        3.48725599781319        0.18482534925322
C           43.37991712233696        2.80813084197821        0.13980768915826
N           43.66160835505696        1.46819962414211        0.08768923118652
C           42.10987783951546        3.38696619526993        0.14872381368646
C           42.05548201674557        4.87711867297021        0.20925151468415
C           42.06508739824248        5.62460152028569       -0.97188194653860
C           42.13505539016298        4.92585660971203       -2.30362986005907
C           42.00840762170139        7.01171901715577       -0.90331065517256
C           41.94306346526801        7.66476050193131        0.32316874818752
C           41.85893136544406        9.16602640336970        0.38373290898650
C           41.93374166712747        6.91084875136494        1.49215031177238
C           41.98957948736492        5.52276368229576        1.44732157240317
C           41.97813615138384        4.71422583655299        2.71726073868775
C           40.89989551143449        2.69132386899680        0.10834890830228
C           39.59703652120668        3.33797196008259        0.12222431835879
C           38.68027445661824        2.35017492976795        0.07599328326916
C           39.42281289567474        1.10230335722697        0.03217919043099
N           40.75615148539489        1.34596689965212        0.05314959648262
H           37.73051639226002       -0.16647177899892       -0.03453076657658
H           37.76296617388038       -2.82619354838992       -0.16027676849762
H           39.70099158314714       -4.67559885443782       -0.24041606806701
H           41.49860549150683       -0.86233553462718       -0.03752340227272
H           41.46099328540926       -4.19740897533441       -2.80015754783833
H           42.42283478880896       -5.42515025826446       -3.64143245243376
H           43.22227331129437       -4.10426620300243       -2.77017720952885
H           42.43821059975681       -7.49496790838719       -2.54167771297311
H           41.43790057117211       -9.66674266007495       -0.49340771062925
H           42.93755122275898       -9.61899986008393       -1.42716806139522
H           42.99322565190698       -9.72249398500710        0.34315359119989
H           42.46157210025035       -7.74867665342816        1.73052911331620
H           41.50204501931030       -4.48393493846335        2.37757503563506
H           42.43466184039554       -5.82362651864975        3.06819596400321
H           43.26502813448959       -4.42729054327961        2.35919284413463
H           45.00125729770135       -4.53588850185845       -0.18032135132389
H           46.84515822851562       -2.57199293031436       -0.05043795571366
H           46.68629900590572        2.71417060462838        0.18043334030705
H           44.74239388648292        4.55833617590835        0.23196090699731
H           42.96265400923439        0.73390825112656        0.04804851212559
H           42.09556414076755        5.64373314925772       -3.12233731525843
H           43.06235888666413        4.35521495008460       -2.38399486598284
H           41.30318657928102        4.22712069794736       -2.40933828769958
H           42.01562168478438        7.59161443417260       -1.82046792628724
H           42.30631385606178        9.54367754984996        1.30344753959893
H           40.81279614963571        9.48032887031846        0.36114146660848
H           42.36700181597049        9.61854285634511       -0.46818317547042
H           41.88272596235678        7.41162066514668        2.45346152585486
H           41.92440712281062        5.36275989161401        3.59115044918317
H           41.12000705845157        4.03961256447071        2.72872828108846
H           42.88173476743440        4.10572215812823        2.78792665693398
H           39.43822984511066        4.40390565057420        0.16168710661605
H           37.60412766006884        2.42595592892738        0.06972451072168
C          101.56493393865458        0.10669864468813       -0.01686846225718
C          100.94273471690403        1.34181452656754       -0.14612797972222
C          101.57066943768126        2.61331655641319       -0.27077800485002
C          100.58936786760030        3.55835941524586       -0.37953881299596
C           99.33086323686673        2.89382325062928       -0.32421932467250
N           99.59453452246838        1.56119724741220       -0.18215034274695
C           98.06380536202792        3.47742724925369       -0.40011567868436
C           98.02899804247448        4.96090026137830       -0.56260455658640
C           98.04429718659351        5.52247604642262       -1.84250267176389
C           98.08792820937070        4.63060187865165       -3.05466977374596
C           98.01759512116270        6.90514733592378       -1.98256144407751
C           97.97519034156689        7.73579382200351       -0.86765471049280
C           97.96854430580208        9.23175678410022       -1.03091093376313
C           97.95991335020888        7.16595222424390        0.40129597175752
C           97.98593553063783        5.78594448247118        0.56494677691714
C           97.96682090206436        5.17726600993871        1.94180582391720
C           96.84981884811039        2.79593848150067       -0.33692395138380
C           95.55798286378547        3.45350338817573       -0.41900802450023
C           94.62774380935483        2.48153386035102       -0.31575610568255
N           96.68315208075491        1.45203542414664       -0.18930810286780
C           95.35363010467682        1.23378131641575       -0.17231676278091
C           94.71255087954536       -0.01517057246134       -0.03321251318791
C           95.36048797606840       -1.25772998375133        0.10316868550733
C           94.73841521983510       -2.52753600597104        0.23939266732936
C           95.72361412792992       -3.47125037531686        0.33522105283765
C           96.97815285345683       -2.80430928479109        0.26068394988671
N           96.70641349544024       -1.46847862717025        0.12182663445630
C           98.24399434455323       -3.38957729396769        0.31754554249911
C           98.28832275449990       -4.87377358316259        0.46707476397452
C           98.28063875302362       -5.69015911300817       -0.66756916949871
C           98.22047057543851       -5.07164292822691       -2.03889537106102
C           98.33062503599747       -7.07096088025763       -0.51637030076958
C           98.38732019000435       -7.65018865299619        0.74708203202800
C           98.46558165917907       -9.14549922915217        0.89695138795766
C           98.39389640239897       -6.82816346175008        1.86920803300671
C           98.34472882996540       -5.44495592498175        1.74165912053851
C           98.35359952976009       -4.56240869090797        2.96133926231728
C           99.45913423939732       -2.70517570068679        0.24916784320294
C          100.75719863942410       -3.35818323879671        0.31554776928521
C          101.68131991427951       -2.38040447430664        0.22462648455054
C          100.94808765946853       -1.13240040357332        0.10091807573557
N           99.61292347099524       -1.36614117984867        0.11852164173063
H          102.64992613683309        0.12035504649777       -0.01008137832456
H          102.63757772832385        2.77013504763263       -0.27546628204408
H          100.71364849761000        4.62383503250914       -0.48822816651675
H           98.88730483841350        0.83722141681308       -0.11450797431978
H           98.99983202432419        4.03023287715291       -3.05073195094645
H           98.06163460811764        5.21853835267778       -3.97163056291855
H           97.23784366112113        3.94595763414523       -3.05249407633748
H           98.02844259497910        7.34063334495637       -2.97641055836060
H           98.99347854030336        9.61020716227521       -1.02790126392538
H           97.50432688451512        9.51783178750302       -1.97497106465584
H           97.42891528868593        9.70940538889835       -0.21276552853760
H           97.92574709563831        7.80619886084781        1.27675000164752
H           98.86250523111691        4.57402052106045        2.10222049139553
H           97.92449612499998        5.95023059401666        2.70855512073807
H           97.09986884698448        4.52375093277480        2.05504227417807
H           95.41245668735669        4.51510397495187       -0.53915607030875
H           93.55334683079305        2.57210103250329       -0.33235393587906
H           93.67233203235503       -2.68703546266397        0.25966716109690
H           95.60256804455311       -4.53647704674097        0.44857392383658
H           97.41083191649606       -0.74255373697589        0.04352290114355
H           98.26372951535564       -5.83696478038606       -2.81323620881636
H           97.29472010580302       -4.50545976537820       -2.15898512261567
H           99.05425705600500       -4.38163268396565       -2.18060143865742
H           98.32537907421937       -7.70434454017851       -1.39745488161041
H           98.01725504862009       -9.46604485260099        1.83762857579322
H           99.51050538939228       -9.46460322663130        0.89271688026843
H           97.95538259112942       -9.64595058049274        0.07358748800121
H           98.43783712127868       -7.27107696030435        2.85884794354336
H           98.39499695921053       -5.15821643092005        3.87263669296558
H           99.21760544350522       -3.89557696401796        2.93966714219317
H           97.45496236710038       -3.94317423068216        2.98834110872722
H          100.90810701948659       -4.42113048025569        0.41729476908656
H          102.75690421596795       -2.46321006620180        0.23603339806228
C           47.07037073347435        0.05023434999277        0.07188909490114
C           48.29512386636710        0.06642317702161        0.08481358903892
C           49.63746940239579        0.07758025827898        0.09108447640550
C           50.86843615012631        0.07891369678265        0.09614576205569
C           52.20605621957520        0.07530941383401        0.09249754672591
C           53.43704664238951        0.06186076492106        0.08761026389497
C           54.77903349841271        0.04658360366133        0.07378322021132
C           56.00387661527215        0.02809597610072        0.05608590032099
C           65.72322466541063        0.01230198090535        0.00846566007857
C           66.94845109254568        0.02320503763518        0.01517854608974
C           68.28940324545253        0.02801593926862        0.02549704308670
C           69.52077689593548        0.03180587647731        0.02745490491265
C           70.85714330671397        0.03080589469859        0.02714125739558
C           72.08845958840986        0.02464732067063        0.02464007066154
C           73.42936725440437        0.01185471532343        0.01631916583789
C           74.65453719953108       -0.00167687643642        0.00416153132013
C           84.37440611383580       -0.08799766295584       -0.04650401169551
C           85.59961119400491       -0.08491106852884       -0.04007587238477
C           86.94156904922215       -0.08201471823058       -0.03252025639247
C           88.17271038694487       -0.07917940950928       -0.03101023533817
C           89.51014533623137       -0.07211812727186       -0.02633988456871
C           90.74119737946148       -0.06380895582313       -0.02607245248114
C           92.08338332098531       -0.05141201352068       -0.02679081698786
C           93.30826837835387       -0.03451959598893       -0.03060337736145
C           57.40720230637317        0.00908451352425        0.03520605229729
C           58.04093595811747       -0.93300699082328        0.86882800045578
C           57.40800939149008       -1.87307981522626        1.72313681520853
C           58.38609473266622       -2.60068197123193        2.34508050144948
C           59.64461804701663       -2.12234165865600        1.88886103633099
N           59.38506608765739       -1.11489501608145        0.99851975552679
C           60.90581459450517       -2.58392693380833        2.27618223408147
C           60.92340889223051       -3.70573144495575        3.26109107241805
C           60.89199845881341       -5.02886673315950        2.81082210000738
C           60.83926540608977       -5.32001673954414        1.33465354821543
C           60.91140219265958       -6.06561669492345        3.73600525550209
C           60.96109407273555       -5.80443067627313        5.10177540576675
C           61.00260266149693       -6.93850177709257        6.08999364701550
C           60.99358624502462       -4.48435130230986        5.53802126898077
C           60.97514125035884       -3.43136655581285        4.63053894579093
C           61.01237249115742       -2.00510134513974        5.11102794028081
C           62.13173420846333       -2.09199565299565        1.83456864914555
C           63.41032119628116       -2.60851325628939        2.28903120148773
C           64.35977070635269       -1.88391910030107        1.66106128747877
N           62.32473340868427       -1.07867775615957        0.94498437926997
C           63.65839597421112       -0.93195517891708        0.82203924734545
C           64.32094839862354        0.00094525553672       -0.00254958995307
C           63.68713193481061        0.92695028530159       -0.85395706760059
C           64.32039423040366        1.86223783161123       -1.71305775568313
C           63.34217398715702        2.55479525119116       -2.37349564456333
C           62.08354214005718        2.06271729328052       -1.93224985874801
N           62.34312513547549        1.08108428820534       -1.01357412690050
C           60.82252865550475        2.49784894784280       -2.34881766546282
C           60.80982196694023        3.57471711042193       -3.38268575334696
C           60.84330450117339        3.23620690004055       -4.73839643670620
C           60.89104288982030        1.78933143352460       -5.15184888701689
C           60.83200642276111        4.24481781988323       -5.69488415543765
C           60.78760852179575        5.58368388715149       -5.32111889104751
C           60.79469046930001        6.66866106544750       -6.36380483116553
C           60.75678771499783        5.90884412790288       -3.96868989473566
C           60.76718092494448        4.91711673369803       -2.99509565500610
C           60.73198640751733        5.27703877970544       -1.53369137921709
C           59.59640812224813        2.02222687783121       -1.88950411595234
C           58.31793851528018        2.53230470484807       -2.35124058363996
C           57.36862934324969        1.84702154168510       -1.68035281889263
C           58.06963201411416        0.91671332012783       -0.81695327648577
N           59.40362149542061        1.04385214040426       -0.96182754319601
H           56.34087725296546       -1.97308517284306        1.83925828314010
H           58.25593062026424       -3.39786011961900        3.05897716224496
H           60.09293219447971       -0.58083624599197        0.50569183555986
H           59.92169714002133       -4.91694224669080        0.90145055999258
H           61.68288812928095       -4.85085785949361        0.82521374970522
H           60.87032246671600       -6.39308592728094        1.14834160225606
H           60.88721246317262       -7.09273253761715        3.38681818880144
H           60.64202655521620       -6.61729923701120        7.06729058490789
H           60.39295420545017       -7.77453608034153        5.74580570358411
H           62.02934470137330       -7.29360004293740        6.20509806352268
H           61.03343052007686       -4.27075193762733        6.60113680163290
H           60.12561848394159       -1.46667381215122        4.77112139415730
H           61.05186018842180       -1.96183447681109        6.19899853835629
H           61.88831133600360       -1.49298060395264        4.70844598633726
H           63.53529009478432       -3.41544821884960        2.99309633937451
H           65.43221098432178       -1.96644279834042        1.73735585923291
H           65.38766293749588        1.98111682942360       -1.80819657487115
H           63.47254164776738        3.33960168322603       -3.10090804657617
H           61.63544613128994        0.54360706688766       -0.52422830355781
H           60.85689143946561        1.69329520655693       -6.23662622096549
H           60.04787837352135        1.24392264396887       -4.72426561148329
H           61.80898350955954        1.32238158502178       -4.78920614067006
H           60.85618610296830        3.98143595778487       -6.74725643891940
H           60.38830098790732        6.30424448722790       -7.30744735978511
H           61.81832050456983        7.00649455002812       -6.54173668460146
H           60.20803409363665        7.52669611855270       -6.03440345858073
H           60.72246838959095        6.95092328914133       -3.66811175316657
H           61.60980186944291        4.87636348480424       -1.02313459300122
H           60.71271986663236        6.35811933376583       -1.39948200147782
H           59.84636793767205        4.84974135534623       -1.05966176038134
H           58.19324110605074        3.30939886252343       -3.08818186391843
H           56.29631448731712        1.93905459507787       -1.74677804438225
C           76.05665855223587       -0.02311736045656       -0.00961265178721
C           76.68395369852757       -0.95776676726478        0.83722843771304
C           76.04436186973058       -1.88261953046780        1.70289350105650
C           77.01740411773635       -2.61063915289924        2.33213383943912
C           78.27907583404991       -2.14843022801386        1.86788667811186
N           78.02649822377239       -1.14789395897212        0.96782094356828
C           79.53655856896223       -2.62177010519698        2.25232202016694
C           79.54175510015192       -3.73817746370893        3.24344908098547
C           79.47106307937327       -5.06238216977378        2.80075444545199
C           79.38923748971484       -5.35971856499959        1.32712652041933
C           79.47499236407742       -6.09455100797110        3.73121723590288
C           79.54646166470475       -5.82771940916580        5.09490254147970
C           79.57060663964026       -6.95739115916543        6.08869838356959
C           79.61530097400853       -4.50657995371019        5.52371005680735
C           79.61293691906909       -3.45808549762904        4.61084620602925
C           79.68544651446777       -2.03056478475429        5.08351713288416
C           80.76612405106960       -2.14900750379956        1.79927725998098
C           82.04063735920225       -2.68232220731589        2.24542772918326
C           82.99550798088437       -1.97334566933832        1.60781547579387
N           80.96661795474783       -1.14154169006603        0.90488668906418
C           82.30167592579788       -1.01300035155008        0.77202318382827
C           82.97102577720716       -0.08545782107727       -0.05297318961326
C           82.34344549095731        0.85179539024493       -0.89686345652017
C           82.98280383506447        1.78747691938093       -1.75112325948586
C           82.00928635859408        2.49319382229978       -2.40469929123776
C           80.74735075597367        2.00829228805867       -1.96528471364808
N           81.00024905152976        1.01838463495277       -1.05359376324164
C           79.48913339705094        2.45358185054727       -2.38038547034585
C           79.47928133156897        3.54180173823445       -3.40235590997944
C           79.50729780618387        3.22025622212133       -4.76224289793057
C           79.54969778233045        1.77851975793495       -5.19382408774690
C           79.49175110766579        4.24078691919579       -5.70602570562863
C           79.44741671405011        5.57482992235946       -5.31541577990197
C           79.44791686135326        6.67302547313479       -6.34419759666641
C           79.42073980550229        5.88304143335032       -3.95892562345267
C           79.43534029907185        4.87925376303761       -2.99790228482220
C           79.40020507002939        5.22081757972178       -1.53210176887150
C           78.25984992293073        1.97938467086942       -1.92891484746453
C           76.98481637029708        2.49236715124920       -2.39716789487415
C           76.03059715583640        1.80699537363094       -1.73342791784536
C           76.72550897345931        0.87611864524176       -0.86586791863771
N           78.06003505426732        0.99984929469677       -1.00368558848074
H           74.97661548631814       -1.97257392642231        1.82149568845934
H           76.88154794673389       -3.39797570198717        3.05579294719252
H           78.73769884087277       -0.62514154162946        0.46774800787149
H           78.46827385498877       -4.94840290183812        0.90895149154936
H           80.22837839943828       -4.90246975319857        0.79993615163295
H           79.40424116158482       -6.43393118769919        1.14552693499512
H           79.42021412123974       -7.12244580125236        3.38784259881983
H           79.22316383500586       -6.62381000862042        7.06660994833819
H           78.94149696978675       -7.78227924189733        5.75275104344072
H           80.59048840397548       -7.33314854569406        6.19910754972949
H           79.66995623088246       -4.28855628312494        6.58526726689703
H           78.81880182006022       -1.46901744249764        4.72952428767939
H           79.71300106315432       -1.98181255289546        6.17163147674255
H           80.58065042693036       -1.54623615183026        4.68893230685104
H           82.15915166698754       -3.48926845272986        2.95063041301462
H           84.06720632349021       -2.07106158293972        1.67617817633334
H           84.05084801490676        1.89786430150561       -1.84776464563334
H           82.14478759436888        3.28181325842931       -3.12705768315704
H           80.28872454016609        0.48407914801295       -0.56632809642281
H           79.51451064175676        1.69619830587190       -6.27969947232622
H           78.70422911630216        1.23145969359960       -4.77281518992095
H           80.46566129633598        1.30312443878800       -4.83733487830850
H           79.51106932010022        3.99057358158056       -6.76170850615886
H           79.04109324947774        6.31908880187915       -7.29163167810742
H           80.46970524153014        7.01757226216088       -6.51973297282294
H           78.85825538434594        7.52422879017773       -6.00259022799847
H           79.38484737653874        6.92120207748128       -3.64524977903147
H           80.28254388414301        4.82182027737238       -1.02809984340985
H           79.37135697160500        6.29994352687829       -1.38453426942278
H           78.51936381846420        4.77973749975660       -1.06178938320513
H           76.86521671375488        3.27056336583095       -3.13375846638778
H           74.95879085226511        1.90045613529880       -1.80596847585646
