380
 energy: -667.136824650008 gnorm: 0.000738199042 xtb: 6.5.1 (b24c23e)
C           66.90213468024261        0.12834301685000        0.04879578936998
C           67.52572547222351        1.25970862678777       -0.46157643417905
C           66.88807362502537        2.41256478269418       -0.99962397606909
C           67.86127325582304        3.29129642557187       -1.38477958221246
C           69.12517786131615        2.70863781210679       -1.08323853582963
N           68.87174395996965        1.48175420823505       -0.53816021211455
C           70.39554204776860        3.25312971367370       -1.30483425422170
C           70.44713162201032        4.61489018336377       -1.89018258218179
C           71.07984718246462        4.83373943770690       -3.11462059880345
C           71.12683202037155        6.10205428223440       -3.67168646503454
C           70.54256442370786        7.17377340972261       -3.00053970375745
O           70.56717565821157        8.43277072544394       -3.50863390124796
C           69.91074068307648        6.96999232647600       -1.77513627890944
C           69.86280542935725        5.69892401438757       -1.23044372827906
C           71.60131115020768        2.60842569388067       -1.01756042439782
C           72.90731569766056        3.21966769107942       -1.18692777074900
C           73.81450102111619        2.29401147245233       -0.81218294609698
N           71.73733218348109        1.34459973475541       -0.52959917903517
C           73.06156029357736        1.12301555476015       -0.40668504727970
C           73.68175628169716       -0.06433049097138        0.03219212388935
C           73.03157465116141       -1.22976270659898        0.47921237628288
C           73.66045156928655       -2.43440795470560        0.89154048064052
C           72.68276135217926       -3.31352123185732        1.26714783003763
C           71.42572496347260       -2.66789497969240        1.10444515208416
N           71.68850651127970       -1.41479242518034        0.61660710424066
C           70.15749459447431       -3.19769288351970        1.36482882483225
C           70.10748950150757       -4.57043208791940        1.92305401530699
C           70.71507232608721       -4.86459760423496        3.14643012088220
C           70.66948439123972       -6.14388021723837        3.67140858670442
C           70.01732745346439       -7.15619633618339        2.96974286099271
O           69.99595127188771       -8.40131572223492        3.51102848201402
C           69.41007712505198       -6.87896118782080        1.74712075466265
C           69.45412148595379       -5.59237813871717        1.23313507544196
C           68.95100830022726       -2.52712109194998        1.13550505449848
C           67.64031851169464       -3.06531909562955        1.46424450898219
C           66.73979273271385       -2.13341667127988        1.09170102419452
C           67.49949964065200       -1.02223462144899        0.54676963310149
N           68.82738280433981       -1.29051601799546        0.59780822393319
H           65.81703831394420        0.15490492300279        0.05400761694714
H           65.82022925816086        2.53787361514466       -1.08271636397838
H           67.72137253031195        4.25555117946104       -1.84585837760709
H           69.58962919680961        0.82956616269126       -0.24053569145942
H           71.52372878904748        3.99816972323937       -3.64424670261720
H           71.61420869706923        6.26430812371781       -4.62709310363632
H           71.03490470683039        8.46234620133995       -4.35406503973265
H           69.46550132137843        7.81327901665176       -1.26178480667495
H           69.38460044393663        5.54466916546757       -0.26953001948822
H           73.08441175657457        4.22624555825763       -1.52967923888387
H           74.88965596500462        2.37407428278455       -0.79498149406612
H           74.72579710877989       -2.59976381966570        0.89152052507818
H           72.81707463445288       -4.32417622544026        1.61666290983124
H           70.97502106084495       -0.73087246116541        0.38675191102011
H           71.21045827279887       -4.07464130844329        3.69994550839358
H           71.13272091549713       -6.37236351261944        4.62330524133266
H           69.51673977672984       -9.02279072013590        2.94668309384188
H           68.90755654067624       -7.67089762764053        1.20214672573108
H           68.99281564231833       -5.38125619040204        0.27483138859220
H           67.45928773753648       -4.02078670448010        1.92987917988204
H           65.66444712384327       -2.16236268697662        1.17344439127064
C          153.65337825543440       -0.01685438932694        0.11951055207633
C          153.02900611440083       -1.06406895494824        0.78489603112632
C          153.66596818995816       -2.14818700336398        1.45139383328241
C          152.69228739022608       -2.95255984207248        1.97338463234647
C          151.42871529418949       -2.37962942281805        1.65231781203191
N          151.68287832390334       -1.24903360179598        0.92859757491506
C          150.15814552284453       -2.86615002566685        1.98106737025359
C          150.10604797292436       -4.10501952423969        2.79499910829803
C          149.47790145227549       -5.24950707305054        2.30219439320645
C          149.42862727340798       -6.41150801976020        3.05627155712997
C          150.00617908152671       -6.43809283951939        4.32358437903770
O          149.97847957940917       -7.55377641363425        5.09713321376101
C          150.63427495822788       -5.30130763020900        4.82907980875125
C          150.68432908155523       -4.14812474720845        4.06605062759741
C          148.95259319838962       -2.27113891864876        1.60057039202399
C          147.64599438584978       -2.75495399312859        2.00905660467610
C          146.73947020418302       -1.92633163046974        1.45083611369506
N          148.81749474541851       -1.15966924503367        0.82604297456803
C          147.49329429210951       -0.93239878143775        0.71151864378385
C          146.87398447016400        0.10687030482639       -0.01145070904822
C          147.52397994422910        1.13321312933336       -0.72153199943850
C          146.89431948428640        2.15496656406844       -1.48085846490823
C          147.87233455416722        2.94817172056500       -2.01367962361822
C          149.13070905105829        2.44038472808905       -1.58667877778474
N          148.86787366933558        1.33908178025978       -0.81501866547045
C          150.39991555435648        2.93754495195312       -1.90084812430479
C          150.45256381716922        4.15863927844165       -2.74037552893524
C          149.86319575613038        5.34909406401497       -2.30719040920869
C          149.91184274210784        6.48979254021564       -3.08873254880158
C          150.54888696371995        6.45234267167622       -4.32776079241289
O          150.57377723144035        7.58823039342521       -5.07137654895802
C          151.13819262067250        5.27188321700074       -4.77454841438837
C          151.09113211333798        4.13635724463221       -3.98099851168157
C          151.60629846656079        2.36513282036616       -1.48238860192263
C          152.91843455695638        2.92744242778011       -1.76145082437678
C          153.81829490654778        2.09760713919723       -1.19599207788509
C          153.05695465821196        1.03504919394020       -0.56339922927720
N          151.72875651952981        1.23358091209861       -0.74890207766037
H          154.73852954210625       -0.03077518879879        0.14022972245095
H          154.73373340218356       -2.28711201148697        1.51039156873348
H          152.83158390948856       -3.86800838002300        2.52521687137593
H          150.96533189605287       -0.64078314303270        0.54850847329837
H          149.03912422319669       -5.23415943861673        1.31075677770248
H          148.94436698267606       -7.29976001960494        2.66490808241399
H          149.51365617415217       -8.27717616898520        4.65553017626436
H          151.07463918396473       -5.33461248331659        5.81795159056640
H          151.15935814429284       -3.25965058080851        4.46704139021650
H          147.46787063794557       -3.60325915102526        2.64987664131402
H          145.66422208988604       -1.95752735201987        1.52506222930355
H          145.82813417062616        2.25707694930746       -1.60387011907354
H          147.73721545262805        3.80373268323951       -2.65506364013148
H          149.58195188884258        0.75907338693884       -0.38682726501537
H          149.37999652792359        5.38339062946318       -1.33706947583069
H          149.46266595905126        7.41577833380161       -2.75155674278700
H          151.04140099369695        7.45265975680960       -5.90642922227828
H          151.62917225668610        5.24592324315232       -5.74148475765304
H          151.53848784015227        3.21465773545679       -4.33608580856279
H          153.10077881539951        3.84155613315461       -2.30335020034582
H          154.89426427499566        2.17519122099617       -1.18336407302415
C           78.88322947501514       -0.15814547585074        0.00499582661164
C           77.65513066257620       -0.14994211084184        0.01328978914840
C           76.31080457285795       -0.12976920779469        0.01817646794350
C           75.08744877208430       -0.10086171548227        0.02754898093820
C           80.22752626675116       -0.15853209531683       -0.00405884981680
C           81.45136208398328       -0.14958075924472       -0.00952371645365
C           94.89121486885949        0.05633996481244       -0.05841270111541
C           93.66249863505060        0.05156955871727       -0.06863942095585
C           92.32002332945477        0.04102074130174       -0.07782461662414
C           91.09575323717112        0.02643350149323       -0.08525142887690
C           96.23369310673348        0.05404238550213       -0.04773328813697
C           97.45801008171165        0.05123556229715       -0.03387653118852
C          110.88970447850917        0.05653866182118       -0.09815844344638
C          109.66096351127854        0.05744373668919       -0.10395073089881
C          108.31863418296167        0.05981261096513       -0.10178534023199
C          107.09426766755830        0.05538311682538       -0.09762137776590
C          112.23198473464569        0.05166002366670       -0.08758392225003
C          113.45626714846696        0.04862509735410       -0.07243705692477
C          126.88857147316101        0.05417877710687       -0.09010819256023
C          125.65981620945510        0.05054255664892       -0.09460059734041
C          124.31726054657813        0.04696921102389       -0.09304579458864
C          123.09288817040046        0.03912620118186       -0.08984903842335
C          128.23112985241818        0.05690376101239       -0.08095168525805
C          129.45541019703194        0.06110240414768       -0.06721179467422
C          142.89920901862359        0.14628452832025       -0.05950613270648
C          141.67129306885303        0.14160495944088       -0.06123753395233
C          140.32648146379782        0.13372996328148       -0.05816286476933
C          139.10291234860094        0.11635252242159       -0.05545943597494
C          144.24414428060606        0.14336303481783       -0.04733277833987
C          145.46750411393197        0.12994006409443       -0.03349544945167
C           82.85663042118904       -0.13385998288635       -0.00848336440340
C           83.49402187954577       -1.23270160275672       -0.61583482287468
C           82.85248569621938       -2.32546688094628       -1.25421572410845
C           83.82336730415258       -3.15528998526230       -1.74502653546490
C           85.08700797821629       -2.59720546271609       -1.41103861284198
N           84.83682082968487       -1.43455867890458       -0.73182967974512
C           86.35166933452560       -3.10434633919048       -1.73536810309639
C           86.38322753653442       -4.39565340958755       -2.46485473951170
C           86.96508306909605       -4.47798942523625       -3.73062784789620
C           86.99736540306286       -5.68051323095531       -4.41910241366225
C           86.44960286986947       -6.82316764023679       -3.84049120771353
O           86.46278416258160       -8.02196108805015       -4.47764178518071
C           85.86769101764247       -6.75549032806081       -2.57586240411713
C           85.83381263089989       -5.54901337130246       -1.89933134310924
C           87.56770476335508       -2.49119530984980       -1.42895500062567
C           88.86462997349186       -3.07631565552587       -1.71748091243341
C           89.78771544045094       -2.20402428796810       -1.26222977526475
N           87.72506013125832       -1.29415556822880       -0.79835949485178
C           89.05328078113828       -1.09379298099001       -0.68883343625579
C           89.69246184975127        0.01065465819611       -0.08952891419467
C           89.05517600940539        1.10358138222536        0.52951955918534
C           89.69694116658222        2.19040395522308        1.17747517745159
C           88.72606077095624        3.01974019881687        1.66908688055466
C           87.46259190655407        2.46703466185810        1.32569128400999
N           87.71287146717950        1.30726868218312        0.64133522594621
C           86.19799127905269        2.97774669353616        1.64247622826068
C           86.16916436215135        4.26696511206241        2.37596839760049
C           86.72447334472979        5.41946998047094        1.81447286069570
C           86.70050143650045        6.62272410279108        2.49704399443696
C           86.12371632681044        6.68742176263224        3.76418790889616
O           86.12260299647836        7.88248032388132        4.40844971986368
C           85.56914479944679        5.54572527792703        4.33818243256605
C           85.59050950592987        4.34663576930441        3.64320717008292
C           84.98171249370780        2.36999944455094        1.32550394761343
C           83.68551609657217        2.96129715378633        1.60389673018643
C           82.76184483756752        2.09206377284094        1.14399066512011
C           83.49518194251199        0.97631257466961        0.57959266379441
N           84.82412489920658        1.17281466763350        0.69627871362278
H           81.78428429845476       -2.44800152745863       -1.33235383818774
H           83.67802588734196       -4.06671699037408       -2.30151838926247
H           85.55495358315599       -0.80966979315291       -0.38082538232995
H           87.38060642000690       -3.58672719371121       -4.18744514703677
H           87.44558736284901       -5.73652358623093       -5.40530783308332
H           86.89435533724277       -7.95818010469958       -5.34024878229556
H           85.44994959119333       -7.65269723056753       -2.13611559766009
H           85.39479119554670       -5.50119202165737       -0.90900787545457
H           89.02643099275596       -4.03329327013169       -2.18644022503448
H           90.86251791650130       -2.28543383631981       -1.29058142669877
H           90.76507731201865        2.31013428711641        1.26044050939949
H           88.87130301180889        3.92763583346263        2.23132502219414
H           86.99474699052577        0.68642909147420        0.28326471100237
H           87.16127073462275        5.37318323448503        0.82309295701393
H           87.12315343484188        7.51929855602265        2.06071246914232
H           85.69461375689754        7.81677212349885        5.27269509557079
H           85.12507715235365        5.59959095172514        5.32637496981411
H           85.16999617227168        3.45585699867410        4.09637036449112
H           83.52562290634509        3.91981694325891        2.07043421926442
H           81.68727980768992        2.17843934410777        1.16455388217912
C           98.86120227903650        0.03852589532016       -0.01868120381216
C           99.47894808597808       -1.06506485914152       -0.63948272457133
C           98.81716288057972       -2.13663001247992       -1.29242895830493
C           99.77220214995235       -2.99050367126879       -1.77347822573516
C          101.04521574825294       -2.46714907365014       -1.42074555446320
N          100.81701667742021       -1.30021718668979       -0.74102340515589
C          102.30026764153082       -3.00661779486290       -1.73040726228489
C          102.30564665944078       -4.30648219876122       -2.44460309021571
C          102.89831854148791       -4.42334995512477       -3.70252663870619
C          102.90542801462557       -5.63674769530445       -4.37253367017067
C          102.32099758951775       -6.75551828320252       -3.78320159312890
O          102.30918908779239       -7.96387172533723       -4.40193936331131
C          101.72667844507414       -6.65300868735911       -2.52667868571912
C          101.71818150897991       -5.43598346407170       -1.86878510528185
C          103.52674207851511       -2.41686943194298       -1.42046663054701
C          104.81403032982477       -3.02473730112936       -1.70405256115267
C          105.75081872973877       -2.16333459042950       -1.25592078912037
N          103.70304201107938       -1.21908749136773       -0.79581204895250
C          105.03406079924083       -1.03889123717590       -0.68781204994818
C          105.69111861802863        0.05651552571044       -0.09100450382434
C          105.07406900256521        1.15295920143610        0.54253784694223
C          105.73730867899731        2.22037914623767        1.20097108702503
C          104.78305164983333        3.05485199186015        1.71606910518405
C          103.50885902343248        2.52612947737871        1.37541149655835
N          103.73598676782562        1.37458222423414        0.66934541929274
C          102.25405387200804        3.04865708035716        1.71222440652630
C          102.24783754837490        4.31878559099772        2.47855746562580
C          102.81888189826654        5.47771505276683        1.94697149009721
C          102.81625739124482        6.66164672421388        2.66301296986561
C          102.24518136656646        6.70000256684453        3.93380843473671
O          102.26572150114805        7.87627283225189        4.61140546728160
C          101.67402143033225        5.55175414971617        4.47770659087406
C          101.67422344542432        4.37240971239439        3.74952840750299
C          101.02757252433449        2.46773919082883        1.38581305460643
C           99.74156213695593        3.07412532006089        1.67785730786639
C           98.80370687117872        2.23411665421452        1.19268658263708
C           99.51863599532219        1.12027204282678        0.60181315824698
N          100.84992019238881        1.28902877926032        0.72678280542264
H           97.74727460361460       -2.23099548505312       -1.38482623664163
H           99.61028221833878       -3.89557982822649       -2.33572195154034
H          101.54700098602876       -0.69718676363958       -0.37649793924101
H          103.34179433247674       -3.55051461534209       -4.16850755437428
H          103.36235837829966       -5.71972241839658       -5.35282020485885
H          102.75301527867806       -7.92533510222522       -5.25980340252653
H          101.27954342095933       -7.53172213405436       -2.07856968000744
H          101.26910656961364       -5.36097168472376       -0.88466131715112
H          104.96076886636382       -3.98728437795538       -2.16650372215123
H          106.82420013935713       -2.26174243412748       -1.28408940305919
H          106.80774326513381        2.32361584823002        1.27594166980396
H          104.94677260205955        3.95095930109454        2.29194482399016
H          103.00531717950531        0.77016256300421        0.30853432438990
H          103.25097514405806        5.45264768261935        0.95278043311325
H          103.25146077348097        7.56334083231232        2.25020366433045
H          101.84097366701691        7.79279906218895        5.47572029060509
H          101.23383362387189        5.58503029612646        5.46854097726949
H          101.24093070764748        3.47605960068892        4.17906906629747
H           99.59763604451894        4.02289875865692        2.16889046301853
H           97.73074243379631        2.33888926997687        1.21301120413485
C          114.85913293540094        0.03236837203128       -0.05041908236299
C          115.47819354237581       -1.07278945871579       -0.66678651518637
C          114.81838445939718       -2.14424591071364       -1.32181409328713
C          115.77475344276752       -3.00204894930237       -1.79307655566139
C          117.04652684870753       -2.48090882457171       -1.43245185114493
N          116.81634158348872       -1.31128482932981       -0.75817454762666
C          118.30232629663290       -3.02448348061287       -1.73168960892600
C          118.30687943571644       -4.32834216166872       -2.43865140433485
C          118.90269326064356       -4.45510298224610       -3.69404033723654
C          118.90451378756694       -5.67202306700878       -4.35777542795483
C          118.31148985927273       -6.78424875382105       -3.76466534288464
O          118.29322788756942       -7.99538837576038       -4.37779595294259
C          117.71467927451930       -6.67201909441617       -2.51015538303615
C          117.71153759095365       -5.45161152732498       -1.85859709601126
C          119.52817881938185       -2.43543320935727       -1.41791165724068
C          120.81605454673070       -3.04486443363310       -1.69517489988907
C          121.75180375012442       -2.18273141473962       -1.24618119480046
N          119.70303506358555       -1.23617492197214       -0.79561249112396
C          121.03383466584856       -1.05647257755743       -0.68314112953367
C          121.68950235380855        0.03962555059984       -0.08592045392890
C          121.07068514638686        1.13673413119582        0.54497831717983
C          121.73198276757127        2.20412141659571        1.20550979664689
C          120.77629701056543        3.03870142959814        1.71785810174378
C          119.50309904099818        2.51038271501035        1.37307139122423
N          119.73221550802288        1.35892630844160        0.66741531023531
C          118.24723353101302        3.03306126194420        1.70570005214727
C          118.23621929649605        4.30038341167942        2.47664522218879
C          118.80715341524686        5.46281806880136        1.95286030177363
C          118.79532238878063        6.64441712277274        2.67276032305939
C          118.21486497787538        6.67686611347943        3.93945406354243
O          118.22527882122061        7.85132473152624        4.62042046665292
C          117.64453067094485        5.52475000980522        4.47600124117662
C          117.65405401085617        4.34784576786752        3.74404188209310
C          117.02175600462500        2.45472648564055        1.37115663947611
C          115.73513462595925        3.06302444364691        1.65670841552161
C          114.79866874699208        2.22623464091868        1.16347666419937
C          115.51510667625620        1.11221467781742        0.57482073282291
N          116.84585216488922        1.27789868364546        0.70833671698821
H          113.74896537410046       -2.23595872824960       -1.42200420850371
H          115.61455658623086       -3.90835638010665       -2.35381258057608
H          117.54506645680910       -0.70911679309658       -0.38974176473769
H          119.35222272822195       -3.58722139710563       -4.16344319551593
H          119.36341461615018       -5.76264985058418       -5.33645955650250
H          118.73858451995855       -7.96354109473603       -5.23513510399600
H          117.26085122785231       -7.54569843717025       -2.05893398247295
H          117.25978002119939       -5.36877151445571       -0.87632370898781
H          120.96375425184571       -4.00849242749902       -2.15508496441507
H          122.82522566627404       -2.28176341563198       -1.27054434547245
H          122.80218931572665        2.30720362630528        1.28382277420206
H          120.93830264042539        3.93494274133632        2.29402493716337
H          119.00242633255911        0.75490640945023        0.30413559129398
H          119.24582911584724        5.44268527766923        0.96145009950995
H          119.22989322250601        7.54905847137626        2.26577729608316
H          117.79338870742463        7.76384044082898        5.48079741933056
H          117.19712289249314        5.55329313890068        5.46374676332299
H          117.22068644200958        3.44862961458906        4.16748918711084
H          115.58984678981216        4.01090332135547        2.14903586661448
H          113.72581991775742        2.33323181611934        1.17722138276562
C          130.85863195001906        0.05635335489517       -0.04465690482365
C          131.48810092772928       -1.04559358390596       -0.65567609060418
C          130.83953223459298       -2.12240117892877       -1.31335725131672
C          131.80446427480712       -2.97397441786561       -1.77792131653502
C          133.07081034379499       -2.44428822699537       -1.40946466413581
N          132.82842836989249       -1.27509257042254       -0.73859446563256
C          134.33141987723042       -2.98269498885899       -1.69580489094773
C          134.34716561891426       -4.28612570451050       -2.40377740083107
C          134.95125243644958       -4.40685860604973       -3.65579581449296
C          134.95951599885436       -5.62108750611139       -4.32436967382015
C          134.36501617819729       -6.73675634573093       -3.73930159789956
O          134.35181522026133       -7.94522688508560       -4.35799431788845
C          133.76149763105624       -6.63098706435983       -2.48746119838233
C          133.75168902336156       -5.41308518945735       -1.83119102962558
C          135.55293479763407       -2.38905978198198       -1.37162731467807
C          136.84442261187908       -2.99923984356737       -1.63122249731138
C          137.77477079334159       -2.13162045532461       -1.18179831299485
N          135.71977970445693       -1.18494274393721       -0.75840808358754
C          137.05017644876747       -1.00068789793245       -0.63670875369785
C          137.69694850135113        0.10721925147189       -0.05420758008697
C          137.06814847132048        1.20907659476863        0.55637729883406
C          137.71800873850603        2.29142684757770        1.20452010566114
C          136.75362583523921        3.12285913547163        1.70489379838035
C          135.48570774530336        2.57818256802413        1.36470739133620
N          135.72694113357804        1.42063605366999        0.67359051139427
C          134.22507940911339        3.09377628186081        1.68991972160380
C          134.20232057472884        4.37107928661248        2.44458997177294
C          134.75645130628263        5.53282061121844        1.90176331084693
C          134.73063852518305        6.72497435881833        2.60369397647116
C          134.15298146871376        6.76886633349742        3.87130354074692
O          134.14848556043188        7.95383392675922        4.53390166820744
C          133.60016164531399        5.61734140677991        4.42710367156702
C          133.62344984511245        4.42967310535029        3.71296315889675
C          133.00400342263245        2.50300949646894        1.36084816881380
C          131.71303715339641        3.10493303698286        1.64128197750789
C          130.78232885974845        2.25771243668729        1.15520280026771
C          131.50647024199415        1.14399562726401        0.57540827746735
N          132.83612130162800        1.31954976631312        0.70813356481272
H          129.77136408239971       -2.22119200305064       -1.42012430372396
H          131.65368950819462       -3.88180651717259       -2.33880742224039
H          133.55040239627789       -0.66694829121993       -0.36677968668327
H          135.40193112933855       -3.53617640556475       -4.11887732407732
H          135.42404370115509       -5.70680335225511       -5.30084055962098
H          134.79996680036925       -7.90817949691968       -5.21366761891274
H          133.30710061581777       -7.50747763362838       -2.04229521041348
H          133.29386736292108       -5.33508105552324       -0.85133375794486
H          136.99724698647174       -3.96717443352467       -2.08037076872477
H          138.84852680055823       -2.22921517369798       -1.19500037886014
H          138.78707356869592        2.40529164831618        1.28363404631992
H          136.90572257622080        4.02754815132571        2.27049116754560
H          135.00391903992423        0.80536947366080        0.31574382112114
H          135.19281013989175        5.50330886062874        0.90956443581286
H          135.15165645777938        7.62912578202685        2.18166783797591
H          133.72063430610038        7.87358391876589        5.39699526121474
H          133.15504523498288        5.65493017475689        5.41558775696621
H          133.20294821327528        3.53135327159092        4.15104323784775
H          131.56119735237121        4.05578446261442        2.12582097946331
H          129.70877667606362        2.35761121184466        1.16770422020040
