110
 energy: -189.170972677485 gnorm: 0.000434986659 xtb: 6.5.1 (b24c23e)
Zn          13.62823760416705       -0.04702973863740       -0.00172931946700
C           10.21384377562911       -0.07294329733078        0.02576729268095
C           10.84452016587929       -1.30268153598125        0.17036502317694
C           10.17242914481838       -2.55572464332601        0.37338956378751
C           11.13162605162911       -3.50987356598607        0.46889534130002
C           12.40221122935415       -2.85207154996806        0.31218453318185
N           12.19314906280193       -1.51424238999290        0.14720417084839
C           13.65372219289421       -3.47880849913893        0.33295807528112
C           13.67068153163591       -4.95242089725229        0.49359658557876
C           14.30261604704518       -5.55267190226673        1.58266145981309
C           14.28707133255560       -6.93350404088504        1.69824747192202
N           13.69716006777232       -7.72836730244439        0.81104590265905
C           13.09586445654304       -7.16528618764261       -0.23221575958272
C           13.05424913974734       -5.79447011746739       -0.43166631143636
C           14.89202942528978       -2.83625824325740        0.21649017333156
C           16.16281064892068       -3.50153227234868        0.14746579357890
C           17.11127588982734       -2.53722116633769        0.03679016457916
N           15.09284375523805       -1.48460494292244        0.12858638404060
C           16.43510195610478       -1.27423921151231        0.03760173733217
C           17.07452784247389       -0.01907483965112       -0.03269041703409
C           16.41593489871602        1.22653879407631       -0.09388064063950
C           17.07521267951875        2.49589080889037       -0.17546242868582
C           16.11028086883271        3.44547262117556       -0.26814105817616
C           14.84553577823283        2.76624124553397       -0.22721410965015
N           15.06826406130526        1.41911445056715       -0.12049798122353
C           13.59481900875517        3.38648735290532       -0.32399094634780
C           13.57954225441986        4.86280854157839       -0.46948597880636
C           13.06274342279147        5.46892898827207       -1.61422947922847
C           13.07081937709208        6.85138214944143       -1.71047810458203
N           13.54740381887996        7.64151323175437       -0.75360108696952
C           14.03864370382747        7.07224954895487        0.34246695125859
C           14.07806622247097        5.69933344295914        0.52847227719188
C           12.35445128654887        2.73883019992015       -0.29591330984983
C           11.07076914213097        3.38782518607765       -0.34654055654782
C           10.12780814589292        2.41798886022307       -0.24816056645202
C           10.82269609206279        1.16652449591673       -0.12892876135908
N           12.16840431687730        1.39426143540475       -0.16199461743444
H            9.12849428965092       -0.07989313238812        0.04797784224520
H            9.10254376274927       -2.67651540927284        0.44069885671760
H           10.99568918125087       -4.56535833784978        0.64221454152408
H           14.78586896337044       -4.94438951039882        2.33809032636497
H           14.76878815837791       -7.42200944209165        2.54040370203146
H           12.62586166078726       -7.84033127666216       -0.94151574562155
H           12.56317689354980       -5.38223899926705       -1.30516140577864
H           16.30851270861935       -4.56958193982305        0.16191799773322
H           18.17656206772928       -2.66747111792405       -0.05431716044917
H           18.14253135645436        2.63992925598698       -0.16329403990769
H           16.24346725769157        4.51087370294008       -0.36449883092496
H           12.67386777079063        4.86457046345481       -2.42521952122174
H           12.67793984921730        7.34521648952122       -2.59451169801459
H           14.41779781936037        7.74359537946045        1.10756727393084
H           14.47704347683869        5.28111231606215        1.44497662616674
H           10.91615102492664        4.45145327047501       -0.43269637797069
H            9.05473283386745        2.52875337875509       -0.24764004714861
Zn          24.56204812296835        0.04449965196673       -0.01532183301041
C           27.97643839119841        0.07730239265727        0.00344802776272
C           27.34574606956453        1.29601411354272       -0.21538194799011
C           28.01781250939950        2.55402283696771       -0.38502940340648
C           27.05860670611104        3.49472517096264       -0.57100079619139
C           25.78804219431946        2.81971667143761       -0.53004832847122
N           25.99711966302487        1.49167963998183       -0.29915362713725
C           24.53653960633708        3.42538847047923       -0.69259797786980
C           24.51960531700730        4.88201866043017       -0.96746870176501
C           23.88732693473607        5.77307567620177       -0.10032272692367
C           23.90289439466377        7.12781964782102       -0.39140635308707
N           24.49315040696494        7.63026753488903       -1.47125422741754
C           25.09479267576281        6.78809756053470       -2.30539283959570
C           25.13640772379333        5.41854724140361       -2.09744552875538
C           23.29824120623863        2.77668972201863       -0.61742549491861
C           22.02747014042952        3.39310107407384       -0.87707065134889
C           21.07901423749688        2.43824949878120       -0.70265170402178
N           23.09743330400740        1.45787207901683       -0.30852552845637
C           21.75518460895018        1.23010111210054       -0.33453959626751
C           21.11576345750128        0.00872713237882       -0.03682663856901
C           21.77436606152555       -1.20085535609412        0.26681004328008
C           21.11510520863936       -2.43907383535517        0.55792373950359
C           22.08004731509514       -3.37458064466365        0.74528513339291
C           23.34478209026803       -2.71281519448774        0.58678277587881
N           23.12203794802494       -1.39286153525053        0.29721135648206
C           24.59549414534680       -3.33443896413777        0.67431836268554
C           24.61076163533048       -4.78926545515086        0.96446235808661
C           25.12720543151330       -5.70219257641039        0.04536743202896
C           25.11915291501089       -7.05286162144435        0.35543315728043
N           24.64292092093861       -7.53045434824359        1.50092497441440
C           24.15201845133409       -6.66694650763158        2.38416113177156
C           24.11259379480476       -5.29929298124067        2.16276226737874
C           25.83585348733337       -2.70663333875127        0.51269616564768
C           27.11954177999625       -3.34237174732487        0.65261080875270
C           28.06249538911147       -2.38580606429883        0.46484231042724
C           27.36759784642861       -1.15366615521078        0.21544678349571
N           26.02189090323548       -1.38116544913754        0.25012911432871
H           29.06178729884006        0.09041877027113        0.02269392090300
H           29.08768711805541        2.68920326462200       -0.35553755970490
H           27.19452173191119        4.55504579971982       -0.71175857992884
H           23.40379123029313        5.41082597055398        0.79922184452983
H           23.42090066732784        7.84014854310804        0.27205696576297
H           25.56508138942329        7.22764871780474       -3.18021691452771
H           25.62776193537900        4.77007582200633       -2.81308114235656
H           21.88176345030686        4.41919193015097       -1.17384324242288
H           20.01373943016440        2.53634509017120       -0.82781843518077
H           20.04779044214629       -2.57333729976848        0.61156118023452
H           21.94688007054776       -4.42196112803464        0.96291933195526
H           25.51579919260197       -5.35990600091380       -0.90647954204878
H           25.51174669617449       -7.78252114880061       -0.34686642326153
H           23.77312938252896       -7.08667382499110        3.31158332162885
H           23.71388130441380       -4.63252969622569        2.91809449146929
H           27.27417020887569       -4.38516101785306        0.87913998117189
H           29.13557326974683       -2.49166746757828        0.49734874206376
C           18.48601485721891       -0.00927891124454       -0.04621576285663
C           19.70427685570602       -0.00458362599963       -0.04691402258697
