254
 energy: -452.456978808453 gnorm: 0.000489253347 xtb: 6.5.1 (b24c23e)
Zn          38.96193804351217       -0.01698815476490       -0.03577421009623
C           35.55299803439122       -0.07099377106499       -0.10168818418389
C           36.18998510256052       -1.30413272031966       -0.02944078331533
C           35.52282544304776       -2.57225337490784        0.06331398358410
C           36.48713997086531       -3.52349184243571        0.13960562005125
C           37.75655067819019       -2.84829165843048        0.08265150184806
N           37.54063791663415       -1.50456963538352       -0.01265211962531
C           39.01113500581566       -3.46838384238463        0.14346677242790
C           39.03308628854978       -4.94999228053784        0.23527328937500
C           38.49299236000076       -5.73451163291892       -0.78408199561016
C           38.51487923935002       -7.11839259377808       -0.70090668414099
C           39.07564104871769       -7.73483176776540        0.41508630370332
O           39.11498838813997       -9.08714277549909        0.53892371427736
C           39.61554546155917       -6.96320641197424        1.44231521685159
C           39.59512474291886       -5.58304430743698        1.34675375431817
C           40.24590836327425       -2.81074434979709        0.12802303539554
C           41.52957642100694       -3.45649051908662        0.13206331904367
C           42.47024859946349       -2.47854542224425        0.09355740967533
N           40.43205470355652       -1.45462254501347        0.07514498221203
C           41.77243337069586       -1.22698316924069        0.05865311117425
C           42.39649919276449        0.03615952833456        0.00483839636572
C           41.73519055602515        1.27982661512228       -0.05286989822684
C           42.39531232898076        2.54967745925126       -0.13220070263867
C           41.42574104528752        3.49832371901435       -0.18538834695410
C           40.16194258633267        2.81658267724878       -0.13232770935773
N           40.38856965009843        1.46760242190226       -0.05900340711026
C           38.90820851370001        3.43530584923288       -0.18133276582029
C           38.88513224121101        4.91919886929861       -0.22990105254801
C           39.41167172353276        5.67108536303888        0.82319880925587
C           39.38819863327963        7.05411517896323        0.78853974701907
C           38.84008080237472        7.70829808893461       -0.31308789508474
O           38.83589842665168        9.06684800379425       -0.31671893968145
C           38.31506809752504        6.97234761655703       -1.37260654849430
C           38.33626531847667        5.58676708851371       -1.32493848848929
C           37.67285483753260        2.77520985147791       -0.18530191086279
C           36.38397349845035        3.41494508977572       -0.19515843654979
C           35.44833399164427        2.43266188656039       -0.17991420009565
C           36.15282161519809        1.18175619968154       -0.14950390452846
N           37.49693499162501        1.42278191345511       -0.15153742932404
H           34.46741496053947       -0.08750085147761       -0.10579804132866
H           34.45231274122851       -2.70553603887653        0.07704333567266
H           36.35440299663723       -4.58895269192024        0.23933871595436
H           38.06789756158440       -5.25640305532219       -1.65970867394839
H           38.09964442947788       -7.72314943205541       -1.50006897347657
H           38.71525757476997       -9.52215588181678       -0.22608862486003
H           40.04471233876090       -7.45586909765592        2.30607313728979
H           40.00438313690896       -4.98253200140380        2.15155668878363
H           41.68944951670318       -4.52259782523837        0.14678368214547
H           43.54308206178550       -2.58773454534109        0.08339069511109
H           43.46451537316926        2.68923334370270       -0.15117127143882
H           41.55306811543336        4.56569738327098       -0.26841314232687
H           39.82773265002258        5.16194309836851        1.68541877217821
H           39.78913906758300        7.63912823414893        1.60702093067215
H           38.43522526624638        9.41505526592664       -1.12444634893346
H           37.89363033020128        7.48594974062350       -2.23015505690006
H           37.93819959799261        5.01509834118190       -2.15601854447718
H           36.21993345940887        4.48071783099086       -0.19934398792852
H           34.37432276426279        2.53486777540766       -0.17997540269153
Zn          94.81117115873057        0.00185294091611       -0.01829420794011
C           98.21907905906738        0.04925431495718       -0.12979895863492
C           97.57971840381900        1.27954754759241       -0.22564408878174
C           98.24458787281245        2.54851829517657       -0.32291137351162
C           97.27875425950036        3.50010530346397       -0.37021082104424
C           96.01052662485959        2.82262954766328       -0.31355540218171
N           96.22884832414198        1.47920560024059       -0.21981953531665
C           94.75529182433681        3.44439701440027       -0.32358791760824
C           94.73136499957170        4.92358654584964       -0.44818167126872
C           95.25537954803754        5.54948990552550       -1.57959315775693
C           95.23143207215489        6.93043841474226       -1.70117640650700
C           94.68464396851400        7.70451531135962       -0.68054969816229
O           94.64355908916659        9.06025861561851       -0.75719984278795
C           94.16122183395532        7.09261456888084        0.45685869171518
C           94.18365541917399        5.71341838888222        0.56573952580177
C           93.52215499663963        2.79062916862538       -0.22678844275955
C           92.23687077161867        3.42968201385840       -0.29350571113033
C           91.29847734000857        2.45508612626030       -0.18256624942755
N           93.33899944824506        1.44013605162786       -0.08782336648636
C           91.99918619153625        1.21119855432215       -0.05467741222994
C           91.37753923360518       -0.04856858436397        0.06592476395309
C           92.04111626691129       -1.28832380710297        0.16635420231157
C           91.38328491039593       -2.55802014545594        0.26459660056693
C           92.35458800034461       -3.50381434042426        0.33445519647616
C           93.61717180670836       -2.81951984059795        0.28569831251319
N           93.38808493612277       -1.47343835179128        0.17601627624111
C           94.87190111290047       -3.43751494750114        0.31384980277798
C           94.89806523838654       -4.91386570630499        0.47019725166061
C           94.38019985019746       -5.51441501431193        1.62030114359464
C           94.40712387586160       -6.88900295472061        1.77631533505469
C           94.94986162212646       -7.68776580641569        0.77164336324985
O           94.95778734632778       -9.03385260716625        0.95514972150588
C           95.46598304257851       -7.10389563193682       -0.38271757503639
C           95.44149221461250       -5.72501442222107       -0.52617457049625
C           96.10564225112184       -2.78273766980177        0.20906052930054
C           97.39594465446478       -3.41601749760900        0.27720511869299
C           98.32926513455219       -2.44024248786722        0.14555975494004
C           97.62199889306615       -1.19826791708010        0.00674256896446
N           96.27854059151559       -1.43865367676023        0.05184389300202
H           99.30449723182805        0.06607951492758       -0.14896755869312
H           99.31482501148093        2.68330962370242       -0.34244609205009
H           97.40989760114637        4.56903346941047       -0.42470017096607
H           95.66938520617786        4.94754380690653       -2.38100439492896
H           95.63407254372987        7.41080288669608       -2.58658145075239
H           95.03087659196218        9.37761918028431       -1.58396573973818
H           93.74295388157068        7.70716693220916        1.24446819128511
H           93.78735028781597        5.23822050883813        1.45620295471747
H           92.07412645417551        4.48739787746118       -0.42426731188172
H           90.22532025346180        2.56098332263349       -0.19260133255561
H           90.31428949685687       -2.70022850500223        0.27221987187667
H           92.22914111408805       -4.57271985363759        0.39844772714014
H           93.96828771131048       -4.89211536962665        2.40695509996432
H           94.01302585808794       -7.35638674918095        2.67026088016740
H           95.35386360821862       -9.48924592373730        0.20020638091920
H           95.88315023182288       -7.73000768197137       -1.16420904441687
H           95.83264288665180       -5.27257965766176       -1.43074892638350
H           97.56255313188024       -4.47163885805283        0.42113747917165
H           99.40348110787332       -2.54022399273588        0.14953861828466
C           43.80127730652866        0.05477603516124       -0.00239593396519
C           45.02610279312388        0.06195448117839       -0.01153612906033
C           46.36854723575745        0.06752674485110       -0.02321199271273
C           47.59943043058907        0.06613449466614       -0.03124118869547
C           48.93709368813212        0.06344849516131       -0.04356135622394
C           50.16803184701580        0.05873737697986       -0.05347956151582
C           51.51029375202337        0.05334163298824       -0.06275956618553
C           52.73531979146202        0.04866404132123       -0.07182080725343
C           62.42089179705471       -0.02944355352246       -0.02630098511867
C           63.64610859301052       -0.03193592952896       -0.02443726422260
C           64.98765031455801       -0.03323403624503       -0.02393433151414
C           66.21882879245516       -0.02960828546703       -0.02470301062133
C           67.55571823647617       -0.02579520921911       -0.02823302788275
C           68.78690743448955       -0.02115489960219       -0.03316390476338
C           70.12844550179574       -0.01784255918149       -0.03896261834209
C           71.35367099457920       -0.01521651570120       -0.04363841578302
C           81.03903347808578       -0.07361959452078        0.00824106327350
C           82.26400160056211       -0.08199313613362        0.02251911633482
C           83.60618747934897       -0.08928263735430        0.03831211521884
C           84.83704686571366       -0.09540384621912        0.05208821984886
C           86.17469065684531       -0.09538980856562        0.06365555539723
C           87.40554948653913       -0.09207584697485        0.07143011167867
C           88.74799718979291       -0.08257193082646        0.07646639034712
C           89.97284542790715       -0.06996043748011        0.07368841781647
Zn          57.57867641894435        0.01415637915969       -0.05770925325642
C           54.13955953766385        0.04155993767404       -0.07342157088203
C           54.78899661866523        1.10013888743530        0.59436157526257
C           54.11669736704627        2.15519699787627        1.29249122235491
C           55.07710397796753        2.97305070363548        1.79528390187870
C           56.34585938087064        2.42874795772458        1.40045248121639
N           56.13356337911666        1.28452547205372        0.67837533310195
C           57.59446883588653        2.97168185674812        1.72416731942007
C           57.60240222716156        4.24357407760131        2.49010226306454
C           58.17953587650414        4.30405073420691        3.76093259750859
C           58.18885029996846        5.48606449726415        4.48007240109408
C           57.62304527164439        6.63445924645612        3.92939363200508
O           57.65308658066208        7.77886999087818        4.66027362913954
C           57.04711503412024        6.59056957448132        2.66193361189932
C           57.03577542415743        5.39951800794245        1.95241805323645
C           58.83720920138050        2.42162324139970        1.39094599562410
C           60.11223324087166        3.01418678393404        1.68335284380910
C           61.06376156144943        2.17789649467880        1.19441902891161
N           59.03713207812805        1.24611326733401        0.71711286493178
C           60.37963148253312        1.07324069355669        0.59090154362685
C           61.01747467861420       -0.01914449667535       -0.03234393732389
C           60.36760433753875       -1.09927642399836       -0.66435304064739
C           61.03886602573868       -2.21680153660608       -1.25833686253844
C           60.07865762977141       -3.03223148058952       -1.76533122198937
C           58.81138419914374       -2.41385376778035       -1.49348866730979
N           59.02407909979546       -1.24455339956909       -0.81282208946589
C           57.56350400397434       -2.93676620489248       -1.85072622708922
C           57.55907664102332       -4.20216909780927       -2.62721202491754
C           56.95769914617711       -5.35059144881584       -2.11158388404256
C           56.95615475835446       -6.53467180707863       -2.83275491740336
C           57.55436938690203       -6.57909066644787       -4.08984791763204
O           57.57227099029504       -7.71668933087847       -4.83175389980006
C           58.15589711550937       -5.43840004920741       -4.61819062437853
C           58.15889989138897       -4.26345555208561       -3.88751426815343
C           56.32074179381004       -2.37211993098872       -1.54163123205784
C           55.04724634375677       -2.89149614191807       -1.95444338473955
C           54.09535771878039       -2.06232387264250       -1.45386720166779
C           54.77791419302444       -1.02357609594922       -0.74151727351047
N           56.12004393734290       -1.22925451964045       -0.81406081802218
H           53.04662004640068        2.24825185249088        1.38853364921404
H           54.93923004169568        3.85972855400135        2.39287268295170
H           58.60921715443762        3.40783157674186        4.19440662166643
H           58.62952453313763        5.53381249441984        5.46820303894398
H           57.23188824661490        8.50946988614562        4.18795789806673
H           56.61190178382044        7.48798639308210        2.23536162145752
H           56.59821802162945        5.36978786534194        0.96065908822609
H           60.26007476396006        3.95620680462423        2.18635369219007
H           62.13508307814678        2.29620816640311        1.22923802763758
H           62.10793572582868       -2.35745912214728       -1.27442992833881
H           60.21538271294573       -3.97644984122797       -2.26733151500850
H           56.50277870489156       -5.32097961694401       -1.12768166849121
H           56.49341704075943       -7.42629175570221       -2.42334467553491
H           57.12497540588370       -8.44174664141701       -4.37528019404954
H           58.61415175789691       -5.48639099294125       -5.59830435178454
H           58.61639918119802       -3.37292210011942       -4.30392438773217
H           54.90065676111983       -3.77045334578160       -2.56129191738905
H           53.02491111011747       -2.13658690692040       -1.56159482461592
Zn          76.19643966850757       -0.03269858262859       -0.03688199199390
C           72.75710011320716       -0.01657693433296       -0.04689772169535
C           73.40406637698256        1.04197214365760        0.62346172732536
C           72.72939881707116        2.09332629489508        1.32476895239908
C           73.68788001992962        2.91684627229786        1.82197434853133
C           74.95760116895755        2.37917318568479        1.42088447724430
N           74.74781770455908        1.23276501205671        0.70145963622665
C           76.20472363785055        2.93052274591176        1.73523914176851
C           76.20756635980557        4.20811210223720        2.49162980051201
C           76.78840987676834        4.28375145266887        3.75988689199247
C           76.79073448004321        5.47194878828331        4.46893441832707
C           76.21431207318837        6.61130120705251        3.91044661113562
O           76.23839217887259        7.76224527494336        4.63118376957575
C           75.63365470830952        6.55199643439823        2.64576923492953
C           75.62924762941084        5.35488105261347        1.94657119373148
C           77.44885946725644        2.38459094071594        1.39964758336711
C           78.72228606361118        2.98358353696461        1.68523230906172
C           79.67584219003299        2.14669311535483        1.20116880077207
N           77.65151904190749        1.20543689491748        0.73308669522691
C           78.99461664622011        1.03554222014912        0.60633566564654
C           79.63492452123263       -0.06100178887885       -0.00687579501011
C           78.98739939859026       -1.14399571338565       -0.63611361210877
C           79.66035941931966       -2.26192131976648       -1.22755769080705
C           78.70188400720509       -3.07604994330113       -1.74000850451865
C           77.43388248958730       -2.45771367478926       -1.47225964142172
N           77.64409885437044       -1.28924799892396       -0.78966630224114
C           76.18725597901413       -2.97996264752779       -1.83557120224780
C           76.18392966801818       -4.24084307091917       -2.61939889419621
C           75.57999911263985       -5.39182549531639       -2.11253043694386
C           75.57416277973121       -6.56990718764767       -2.84344230460362
C           76.17053257047637       -6.60550191327342       -4.10164576907459
O           76.18334693320381       -7.73658495324883       -4.85347761691191
C           76.77511940676708       -5.46225627092990       -4.62101159652198
C           76.78260026572427       -4.29346224122096       -3.88058617686958
C           74.94347238163206       -2.41793139931007       -1.52711798169213
C           73.67108325289701       -2.93768469371690       -1.94321015762094
C           72.71746575570305       -2.11305252889271       -1.43864080005617
C           73.39798336165302       -1.07629381032964       -0.72142516478137
N           74.74024763014813       -1.27852893987052       -0.79465355080886
H           71.65928047088062        2.18050384212688        1.42593276263050
H           73.54828851141380        3.80309108964514        2.41980678739613
H           77.22631135469541        3.39460709472004        4.19968324459302
H           77.23396921243319        5.53148780311228        5.45529847123975
H           75.81355141281968        8.48663262566769        4.15248782280497
H           75.18925197259598        7.44210709101989        2.21339195585421
H           75.18756515696832        5.31288232691386        0.95708305347204
H           78.86765851250804        3.92972158477817        2.18118996777439
H           80.74678500972603        2.26904543260560        1.23333546036135
H           80.72943959338531       -2.40293148455693       -1.23958389244335
H           78.83977535915973       -4.01958353864700       -2.24303124433125
H           75.12567141008955       -5.36888674608468       -1.12819326751276
H           75.10885944507801       -7.46340901178035       -2.44109547581885
H           75.73708001636302       -8.46507476750801       -4.40122388584962
H           77.23145773422024       -5.50328849448764       -5.60230804314859
H           77.24206078390520       -3.40074761006181       -4.29012322021986
H           73.52614842622307       -3.81390744090170       -2.55436911312600
H           71.64718758356801       -2.18915627707621       -1.54664953179029
