77
 energy: -125.083241530221 gnorm: 0.000434071552 xtb: 6.4.1 (bd6e46d)
Ni       -0.08821451629722    0.17079296954261    0.01469381410834
C        -3.46838249496916    0.63690337979431    0.09824657065046
C        -4.92962900764841    0.83637200726736    0.13800866484089
C        -5.55543685937321    1.65567456417887   -0.79691763479491
C        -6.92613818276027    1.83557299605841   -0.76303864521806
C        -7.68698874430879    1.20710492968794    0.20873137992497
C        -7.07104119449638    0.39370447798073    1.14524262855122
C        -5.70158507438567    0.20505301022005    1.10881336822947
C        -2.96617851428012   -0.64292580623797   -0.10288799430902
C        -3.79555860492151   -1.78071120861965   -0.36946532054867
C        -2.97896779125252   -2.85729184810460   -0.40076901717320
C        -1.65311966604454   -2.37505713571815   -0.14903482960296
C        -0.55458284065715   -3.21068128182189    0.01191496353119
C        -0.75643342012281   -4.67205830698491    0.01000084719454
C        -0.13649442891350   -5.47029676347024   -0.94672416746938
C        -0.33150816843361   -6.83944208580551   -0.94814511082226
C        -1.13997235608777   -7.42883517996738    0.00953233888947
C        -1.75653554256491   -6.64180440978398    0.96798034374582
C        -1.57005535095596   -5.27165700733073    0.96705006501147
C         0.72757661014721   -2.70377915646615    0.18545148015957
C         1.86873529219675   -3.52668118430959    0.45760957833894
C         2.94513573825684   -2.70931454583372    0.45887384830893
C         2.45965352225269   -1.38947825022164    0.18305048937937
N         1.09660112167995   -1.39212358089222    0.06946388880159
C         3.29281368401347   -0.29458837565841   -0.01123594712384
C         4.75477535359575   -0.49191748905222   -0.01494724069939
C         5.35299437032127   -1.32562746169308   -0.95521361384251
C         6.72442294016984   -1.50318423404287   -0.96069696850532
C         7.51392903454075   -0.85762412750149   -0.02366575470156
C         6.92579270718137   -0.02940987071909    0.91779220023903
C         5.55552696636531    0.15655404276073    0.92076084896831
C         2.78334764903372    0.98313084498683   -0.20965316818029
C         3.60267511323975    2.11710726710198   -0.52011244001015
C         2.78506074643743    3.19321981889629   -0.53769162910498
N         1.47331781794094    1.35496547131303   -0.08631130939742
C         1.46894878336415    2.71495071201994   -0.23267678878557
C         0.37633008049415    3.55231725675630   -0.04385862034522
C         0.57310631857254    5.01366843629320   -0.08383261914352
C         1.42757011412092    5.63852323991327    0.81980672674315
C         1.60904272485394    7.00884232637321    0.77811305529187
C         0.94604322684776    7.77067191246620   -0.16953585031708
C         0.09550922852677    7.15617634765100   -1.07344002344393
C        -0.09379108078651    5.78710316678562   -1.02955346744309
C        -0.89836519698626    3.04708856473922    0.18358200113453
C        -2.02947514238304    3.87287390754180    0.48749438842605
C        -3.10520697476894    3.05579656498861    0.53347412806260
C        -2.62914015031910    1.73332202195857    0.25404655951995
N        -1.27076789565821    1.73441050340761    0.09447633200275
N        -1.65248502332058   -1.01350661253415   -0.02058230426207
H        -4.96080582522718    2.13930180420084   -1.55839836569197
H        -7.40266282814447    2.46790695394039   -1.49800396183635
H        -8.75705842418095    1.35043725460313    0.23588011397705
H        -7.66025375560284   -0.09576703029890    1.90697860913745
H        -5.21824698245215   -0.42443976849514    1.84189804981377
H        -4.85616044706747   -1.74205998633253   -0.52280866191329
H        -3.23298333376593   -3.88261577359424   -0.58518407166364
H         0.48858607682856   -5.00807369086235   -1.69699946171813
H         0.14878182383422   -7.44915434781673   -1.69951278549399
H        -1.28907087766213   -8.49847677314084    0.00913302816980
H        -2.38491394837956   -7.09738459100202    1.71940398762814
H        -2.04436993655899   -4.65645306703706    1.71790078683314
H         1.83266108617432   -4.58362681520459    0.63493769929393
H         3.97259425129440   -2.95864201210194    0.63773708149512
H         4.73618705261121   -1.82231268246609   -1.69012102395027
H         7.17918725200902   -2.14709088592572   -1.69931576817457
H         8.58456403117419   -0.99928330921834   -0.02731047080779
H         7.53729412460182    0.47369791575065    1.65260884482379
H         5.09395995969157    0.79743317656579    1.65798191334791
H         4.65729874758736    2.07681223101522   -0.71002547028354
H         3.03191223795331    4.21578985110646   -0.74561326312176
H         1.93825265139299    5.04367367227907    1.56319769803292
H         2.27043240425289    7.48441289523184    1.48759509503394
H         1.09159509903958    8.84025352599960   -0.20340360293919
H        -0.42201918484782    7.74595682271927   -1.81589975141168
H        -0.75116141229348    5.30468578765274   -1.73828628943732
H        -1.98760543427007    4.93138298539861    0.65376030540092
H        -4.12610732945015    3.30720603911923    0.74413669064682
