458
 energy: -766.947764689739 gnorm: 0.000913504024 xtb: 6.5.1 (b24c23e)
C           83.71725188766774       -0.08761691807984        0.07123096495959
C           84.33179439888262       -0.95701388421244        0.96359560912660
C           83.68555564793755       -1.87519501542930        1.83744953563274
C           84.65099570413231       -2.52631026366895        2.55333400599629
C           85.91775961368155       -2.01853011484669        2.14794864099028
N           85.67480103125499       -1.08458436134608        1.18074314812294
C           87.18228309097255       -2.39337730990811        2.61889717904347
C           87.21940924655408       -3.40286430991101        3.70301805535676
C           87.88804497631483       -4.61641909903589        3.52271414399637
C           87.92023891620798       -5.56531601004410        4.52883345822798
C           87.29312159438304       -5.31263652041531        5.75169697079181
N           87.28977785883733       -6.27503440447287        6.74636725061217
C           86.61877872588435       -4.10328564134612        5.93886070232305
C           86.58303092516732       -3.16387655641454        4.92359821324381
C           88.39266267144700       -1.88526013010591        2.13991608659134
C           89.69097030069916       -2.23231823291177        2.68849118637311
C           90.60634228986547       -1.55581788689670        1.96355920040884
N           88.54064357962133       -0.99589515970488        1.11899492003259
C           89.86553458047476       -0.78851881760658        0.98167000170614
C           90.49717557254914        0.03435301110617        0.02625477435544
C           89.85667402823917        0.85156125413539       -0.92507302284485
C           90.49696032439402        1.65567453795874       -1.90435715389397
C           89.52718438183499        2.31087219259482       -2.61215149070207
C           88.26380291897671        1.93321307309505       -2.07954427709869
N           88.51505048071914        1.04130428172738       -1.06978145734149
C           87.00031397630472        2.36101812752208       -2.50321781855295
C           86.96263907243048        3.37300482797654       -3.58381945628053
C           86.30144286581067        3.10868862334670       -4.78617067250387
C           86.26546499538927        4.05077107223713       -5.79855881109631
C           86.88119205231764        5.29285753158341       -5.62334290387791
N           86.87979803110882        6.22338789419850       -6.64775549730755
C           87.54915591033435        5.56351302469337       -4.42626826348923
C           87.58866459724054        4.61192777008253       -3.42280312188070
C           85.78752703353577        1.89973965539157       -1.97756445441045
C           84.48005103550771        2.39181003910073       -2.38182917959480
C           83.57173677934334        1.69938128948158       -1.66458923307117
C           84.32337487706135        0.79615461913119       -0.81204184543097
N           85.65418804652720        0.95190421291047       -1.01981886836265
H           82.63191340404914       -0.10634529508831        0.07312764710487
H           82.61788666839040       -2.01543147819313        1.89610349082050
H           84.50386658284064       -3.29864285196330        3.29077226264785
H           86.39770450334312       -0.56732149981060        0.69174040245296
H           88.36933744489814       -4.82391102081233        2.57329501772605
H           88.43296132558334       -6.50814030049093        4.37255236765218
H           87.12571112828830       -5.92533659264047        7.67688113622098
H           88.03792638425671       -6.94753773070847        6.69052941246230
H           86.12770398730974       -3.90225468823816        6.88478168911652
H           86.07461981911294       -2.21941435984247        5.08487287908448
H           89.85782585246027       -2.89132847950183        3.52515698101125
H           91.67942502104319       -1.55185020092884        2.06980986467421
H           91.56412233579211        1.71432932366548       -2.04596584282825
H           89.67166196980743        2.98670609047869       -3.43917939367336
H           87.79482265466497        0.58465982818807       -0.51990049896411
H           85.83025238324801        2.14324780685094       -4.93457014744943
H           85.75868366603396        3.82908613028813       -6.73145110127191
H           86.13490045467233        6.11821365165736       -7.31792132181674
H           87.03587776080069        7.17579718539428       -6.35859175013736
H           88.03197100092255        6.52441399120180       -4.28534269827150
H           88.09141428673772        4.83852691765613       -2.48881608700139
H           84.30479718846355        3.17192524303900       -3.10519674775674
H           82.49582587390665        1.77835798627403       -1.68075160692583
C          186.53022569507041        0.07921977144327       -0.10832438587958
C          185.91455953946274        0.73477677523781       -1.16709783158580
C          186.56035779745071        1.37792374930584       -2.25962320621365
C          185.59357058824142        1.90569943121862       -3.06911807144469
C          184.32621122758889        1.61102449012664       -2.49138721429403
N          184.57048356600293        0.89554998676837       -1.35335935059635
C          183.06028684459815        1.95663487891582       -2.98048277347965
C          183.02187899509664        2.77095152931312       -4.21806308977287
C          182.37765641450326        2.29677267753608       -5.36356339732480
C          182.34320655655193        3.05185665035594       -6.52224911161043
C          182.94320415954166        4.31334416261903       -6.55557431492024
N          182.94409606147391        5.05525815940270       -7.72406580960390
C          183.59372028701111        4.79298024906878       -5.41583128096684
C          183.63203911870275        4.02691567159367       -4.26423510157443
C          181.85002745933897        1.59157918136175       -2.38525616974045
C          180.54876121970887        2.01450953655763       -2.86985247853334
C          179.63493340674793        1.46445164701585       -2.04326339955574
N          181.70466790885777        0.81864673093984       -1.27311341536338
C          180.37936227679967        0.71611051867898       -1.04945853709008
C          179.74988654156456       -0.00242303895309       -0.01191844507801
C          180.39199748113697       -0.70971431062171        1.02276171063094
C          179.75353725664684       -1.46188949103915        2.04367873533390
C          180.72465702262679       -1.98635255144815        2.85147645865525
C          181.98707961446812       -1.56021619620300        2.35427804811519
N          181.73380263232556       -0.79915749629323        1.24292642273381
C          183.25158725621000       -1.86643201030281        2.87002501381960
C          183.29300204171651       -2.67790568881270        4.10832040522163
C          183.95598868684482       -3.90782426789405        4.13164034839127
C          183.99576335619878       -4.67120080544058        5.28460272876623
C          183.38218504692298       -4.21053655026613        6.45246757634413
N          183.38718206905023       -4.98849563228997        7.59703454794623
C          182.71287368564489       -2.98408977304605        6.43666262628891
C          182.66953579689979       -2.23157385295627        5.27646942179324
C          184.46321713931854       -1.46084410322277        2.29772131216471
C          185.77096327551743       -1.72995870363348        2.87434611777950
C          186.67801181953683       -1.18896842809965        2.03561655632673
C          185.92530304441746       -0.57799230513051        0.95500057225103
N          184.59505577010415       -0.75305704360928        1.15098255996682
H          187.61561661791069        0.08893125549396       -0.12055155589067
H          187.62878020861945        1.41842692485445       -2.40052747175674
H          185.74018777814979        2.44325862428633       -3.99188644952001
H          183.84783702435229        0.53145715102514       -0.74137775711995
H          181.91738747810635        1.31492983580335       -5.34854538380178
H          181.84947800024364        2.66806022732172       -7.40834611767809
H          183.08477013675466        6.04512910928202       -7.59972501286605
H          182.20803515222411        4.82752355419809       -8.37327461784301
H          184.06399166469251        5.77009794011027       -5.43620277613036
H          184.12154000493047        4.41567142248138       -3.37780466681330
H          180.37860575068731        2.65849896487388       -3.71746333539656
H          178.56050664330954        1.55008264332743       -2.07598985461664
H          178.68668137949788       -1.58741174746646        2.13522915539291
H          180.58169012161005       -2.62322714906057        3.70911798808220
H          182.45308285266259       -0.37701994974724        0.66493291631101
H          184.42573635598538       -4.27752176058696        3.22677138651940
H          184.50383606220231       -5.62938296269976        5.28651135604269
H          184.13260831297893       -5.66423129349464        7.64971007361982
H          183.23289180930763       -4.48459312623419        8.45570227144806
H          182.23192267364456       -2.62242954049802        7.33899197564775
H          182.16576622751421       -1.27103523343167        5.27919434244059
H          185.94702517625183       -2.24866681401849        3.80305388122074
H          187.75363711718575       -1.17865352365912        2.11932128434101
C           95.69898409668266        0.07957105612461       -0.02317325142862
C           94.47025626216181        0.07303134366981       -0.01383695147677
C           93.12645494303854        0.06105127251906       -0.00362103642649
C           91.90227109076736        0.04990908216945        0.01105831098540
C           97.04269700959163        0.08238941206663       -0.02637247284202
C           98.26713139996365        0.08550512264688       -0.03034004656711
C          111.71730332052317       -0.04238714940386       -0.00626060883901
C          110.48821232076186       -0.03827015701955       -0.00613567431156
C          109.14538073650503       -0.02790353220916       -0.00653594614594
C          107.92074655815193       -0.01171393485934       -0.00473700259366
C          113.06017775839831       -0.04023607068912       -0.00598089770762
C          114.28493944293309       -0.03164942899825       -0.00666870103358
C          127.73167715628622       -0.03103315530611       -0.00554282066874
C          126.50257584025790       -0.03057549440544       -0.00172960777722
C          125.15987340311531       -0.02614457491432       -0.00221590947998
C          123.93521010788615       -0.01965566589898        0.00223690021704
C          129.07437903971049       -0.02698174712643       -0.00668061994841
C          130.29902218604573       -0.01621484694145       -0.00895221999210
C          143.74252653690235       -0.02793704831293       -0.00658578813815
C          142.51345802792079       -0.02805837752196       -0.00444629423559
C          141.17074785916208       -0.02506030549777       -0.00426967543188
C          139.94607391479136       -0.01724042824833        0.00101715172662
C          145.08523980759608       -0.02533429589730       -0.00650403318034
C          146.30992361440718       -0.01610629270413       -0.00905018972261
C          159.75719610280663       -0.02335927788096       -0.00768683330106
C          158.52809109210227       -0.02375101526917       -0.00609740539421
C          157.18521359010808       -0.02024876532487       -0.00397577100121
C          155.96046666024606       -0.01367688743345       -0.00031303295049
C          161.10007340939828       -0.01892568360105       -0.00524157905246
C          162.32477350174810       -0.01027342957174       -0.00512738445821
C          175.77686386557710       -0.03739088080247        0.02782267424671
C          174.54803879683723       -0.03999788049574        0.02811352660903
C          173.20431990849255       -0.03437733700431        0.03044476473248
C          171.97986903557327       -0.02491862251163        0.03211844677631
C          177.12069278502344       -0.02981663479189        0.01772496548608
C          178.34474436725151       -0.01743715993159        0.00445648276636
C           99.67136795694852        0.08603822423523       -0.02381511054801
C          100.28964670103365       -0.23772043456566        1.20009434649715
C           99.63127340576345       -0.58794776356750        2.40658628341720
C          100.58775047220664       -0.78974895174330        3.36458986693648
C          101.85815820974763       -0.56007880701772        2.77120386382901
N          101.62764564484877       -0.24282731339569        1.45893686519522
C          103.11201890722154       -0.64684670316675        3.39100999881511
C          103.11459647787942       -0.93884895888012        4.84380522083989
C          103.76382685682820       -2.07091386636348        5.34311419125773
C          103.76869612196792       -2.34596168840307        6.69882769824948
C          103.13345621158645       -1.47987134612249        7.59272050915820
N          103.10503349605764       -1.77062182715549        8.94532644664199
C          102.47664804907259       -0.34876279084981        7.10109711903466
C          102.46778403795609       -0.08675038511528        5.74268747267913
C          104.34006487378515       -0.47862221656919        2.74797846783045
C          105.62193758007602       -0.50971596132720        3.42830121662590
C          106.56419918220671       -0.33347557558971        2.47834462495241
N          104.52395139667115       -0.25866547202734        1.41634100441424
C          105.85577383418018       -0.18129799812991        1.22358937209699
C          106.51752031731063        0.00998565316067       -0.00680175589282
C          105.89806689720848        0.23237063153987       -1.25264902480993
C          106.55468425998099        0.39342581416454       -2.49945679833927
C          105.59840252987281        0.61797551866807       -3.45249991849503
C          104.33015965721287        0.61044223831283       -2.81172073529557
N          104.56155000323919        0.35973499346034       -1.48510611105932
C          103.07754991679266        0.80925535979383       -3.40721774275331
C          103.07652051317875        1.12990790541117       -4.85394420336514
C          103.74798139970984        2.25717759244241       -5.33444910834516
C          103.74747850062754        2.56242285831120       -6.68381266541151
C          103.07446891120338        1.73762470148623       -7.58897344352903
N          103.11320819509837        2.01171893895201       -8.94471561868898
C          102.41229901196688        0.60063884516093       -7.11832171063838
C          102.40902393133322        0.30854626862827       -5.76617031071164
C          101.85037476750779        0.72737881676551       -2.74531583657824
C          100.57131402447929        1.00414786183770       -3.37319762459061
C           99.62864166922189        0.79690313908677       -2.42985457891304
C          100.33423801244648        0.40812271202265       -1.22555463120185
N          101.66543386167851        0.38833189993530       -1.43942958404175
H           98.56269120928040       -0.67654151511080        2.51833479695495
H          100.42836167196300       -1.08379969063384        4.38911333724639
H          102.35504735548842       -0.04702721144907        0.77939385506456
H          104.25147610640177       -2.75274339122918        4.65510332259579
H          104.26687914156918       -3.23367591016594        7.07295391997557
H          103.84333930139110       -2.37614203544963        9.26671789266035
H          102.93478322716712       -0.98103590560378        9.54749953702359
H          101.97853912335130        0.32541237776051        7.78931785103944
H          101.97315538563640        0.80442227286068        5.37176176848210
H          105.76139600151288       -0.63331900706050        4.49005066565575
H          107.63587509530852       -0.29518948454195        2.59173179677545
H          107.62178481864179        0.33695776835129       -2.64199844000817
H          105.75650196523529        0.76384346683426       -4.50853348274719
H          103.83531582624190        0.27455936440661       -0.78186775488977
H          104.25646409694495        2.91346431163707       -4.63647418422198
H          104.26573920010426        3.44482924745116       -7.04304642192820
H          102.36785515267385        1.60153704114045       -9.48433303729897
H          103.30629970743709        2.97200536452096       -9.18041336573082
H          101.90057889608535       -0.05126639667821       -7.81785607577637
H          101.90118039668650       -0.58107563804774       -5.41019562432798
H          100.43447976856622        1.32784118805365       -4.39230168010236
H           98.55852922889881        0.90088974776688       -2.51273328804157
C          115.68830462359536       -0.02026477935581       -0.00304776408584
C          116.31200242980606       -0.31436086280702        1.22583479049013
C          115.65858519347744       -0.65213587541548        2.43846476493299
C          116.61842266441369       -0.83273255224052        3.39740653386641
C          117.88573932940361       -0.60115977035358        2.79836706910662
N          117.65021812155011       -0.30378500926770        1.48223364582535
C          119.14164264482831       -0.67185154500428        3.41598000226990
C          119.14960250249358       -0.94775843618534        4.87189099645492
C          119.80631081083938       -2.07044434047562        5.38240953453604
C          119.81531834178507       -2.33032267039639        6.74110418226156
C          119.17678792339962       -1.45799903428672        7.62656126823129
N          119.15236945400211       -1.73387797710930        8.98231077368936
C          118.51267966502181       -0.33611810905089        7.12370473969790
C          118.49970791379533       -0.08934402345162        5.76249657913804
C          120.36666078287428       -0.50133715823314        2.76784124421256
C          121.65071746252221       -0.51777748228347        3.44435605855046
C          122.58867027703388       -0.34086052279927        2.49025264755586
N          120.54476406718322       -0.28978128476848        1.43401271805796
C          121.87527147952815       -0.20232482126764        1.23671842190265
C          122.53200436181930       -0.00992560811946        0.00377029886395
C          121.90854746870585        0.20241528899887       -1.24181040631430
C          122.56240151631471        0.37226194953115       -2.48885584619374
C          121.60258654103205        0.58151358199375       -3.44189742182418
C          120.33487580044672        0.55393028077480       -2.80093069434683
N          120.57022245094404        0.30901290197862       -1.47402406576742
C          119.07890628251360        0.72788411301798       -3.39737261945913
C          119.07272337651577        1.04906836368638       -4.84400957846188
C          119.71962427820901        2.19195618881146       -5.32133125213330
C          119.71204413424101        2.50117941088670       -6.66973569029368
C          119.05664555712512        1.66471447449110       -7.57710290957581
N          119.08783595065370        1.94446355383313       -8.93190529635343
C          118.42043242163371        0.51164561071760       -7.10980358310368
C          118.42386131732172        0.21549592554802       -5.75848984309611
C          117.85366317273363        0.62374996398706       -2.73571736532159
C          116.56925549052777        0.86953229076997       -3.36534537001720
C          115.63128857148472        0.65306647561277       -2.41942445198280
C          116.34496523561768        0.29004367392742       -1.21177905659612
N          117.67573156394377        0.29225036911849       -1.42651436972480
H          114.59098773289485       -0.74834608716976        2.55326508335366
H          116.46329927868968       -1.11388447323072        4.42618828680975
H          118.37492372805173       -0.11142521322666        0.79882570877857
H          120.29644985377006       -2.75717929888967        4.70108302143264
H          120.31921944709835       -3.21099251778329        7.12410990816501
H          119.89467010839900       -2.33146639984843        9.30926565338775
H          118.97808773921446       -0.93878942703254        9.57601784225775
H          118.01202945466343        0.34284171071520        7.80534413670764
H          117.99926475665680        0.79475989848880        5.38256898628473
H          121.79435287791064       -0.63308668960183        4.50647650494382
H          123.66032505496567       -0.29318673261969        2.60011839065642
H          123.63023788051338        0.33253139885586       -2.63151844054984
H          121.75804876738339        0.72934845639122       -4.49805240903598
H          119.84537501264471        0.21387822269297       -0.77061567682723
H          120.21392605888663        2.85697578580206       -4.62143787735449
H          120.21064587554584        3.39585576694814       -7.02642218277373
H          118.35073185547813        1.52032668923238       -9.47207306146325
H          119.25947720435386        2.90968493065619       -9.16407850769424
H          117.92317122127564       -0.14936161233708       -7.81121883748815
H          117.93606250196036       -0.68629428814372       -5.40512423907875
H          116.42550519018044        1.18052732058939       -4.38743318234166
H          114.55936676919120        0.73569575916339       -2.50277051349323
C          131.70225626630304       -0.00636173580966       -0.00490046936646
C          132.32493393738045       -0.30184266027273        1.22414909478270
C          131.67017965544730       -0.63885514018385        2.43631375509254
C          132.62911208327759       -0.82167522105944        3.39571275416569
C          133.89714550468946       -0.59203871318844        2.79747289525235
N          133.66293253770201       -0.29356079980193        1.48134763769039
C          135.15272021304500       -0.66550741112610        3.41532043856189
C          135.15931879176139       -0.94249445192836        4.87104466454506
C          135.81161583664797       -2.06792446253170        5.38110883528321
C          135.81698035189416       -2.32997102499208        6.73942634680732
C          135.17934600853232       -1.45708533533193        7.62498121386389
N          135.15051892542189       -1.73545207592074        8.98011418138902
C          134.52031853506338       -0.33198851137320        7.12260404659798
C          134.51076795458152       -0.08314639050991        5.76175117232984
C          136.37786447434576       -0.49703552930141        2.76691381145035
C          137.66214010387043       -0.51633152650366        3.44278970691343
C          138.59990682519484       -0.33982684918884        2.48841119685113
N          136.55564568678750       -0.28478742491131        1.43313213607090
C          137.88616869998381       -0.19888079450299        1.23528669178943
C          138.54284191762412       -0.00668692866808        0.00226526245154
C          137.92007652229680        0.20556721195213       -1.24376765820099
C          138.57483481542218        0.37315430007214       -2.49069155073661
C          137.61591145383574        0.58311812297915       -3.44451098886355
C          136.34788374404843        0.55818685904673       -2.80420652772534
N          136.58206844959872        0.31404492469033       -1.47692287900224
C          135.09234347121401        0.73402856236278       -3.40102368118335
C          135.08567661970369        1.05311831300145       -4.84810577337973
C          135.73363194217293        2.19427502100556       -5.32805792882457
C          135.72388031815146        2.50187105678805       -6.67684536363809
C          135.06531933863346        1.66542679547313       -7.58194333511395
N          135.09396024583199        1.94365025604214       -8.93711014956501
C          134.42834445371753        0.51382873074328       -7.11205031439625
C          134.43382628715642        0.21941048865506       -5.76038253647863
C          133.86725021451829        0.63336074285901       -2.73867638621631
C          132.58298425083913        0.88189267511217       -3.36750039531422
C          131.64523597935673        0.66801065716414       -2.42078967824077
C          132.35901010563194        0.30331377810028       -1.21367925869926
N          133.68954318263806        0.30294216394653       -1.42914653038935
H          130.60235954684416       -0.73333667320632        2.55042624454304
H          132.47290544792577       -1.10304800900889        4.42427020677900
H          134.38864684337409       -0.10239505024635        0.79866977786204
H          136.30084262584521       -2.75521593936217        4.69969108266595
H          136.31703066690494       -3.21299920130001        7.12204950688124
H          135.88953503357885       -2.33666152111967        9.30784311053240
H          134.97758694953680       -0.94096893037366        9.57501428020618
H          134.02059579590502        0.34758585941326        7.80431568859510
H          134.01383603957450        0.80309197880578        5.38218345300222
H          137.80589955231181       -0.63318491366035        4.50473118825479
H          139.67168499080890       -0.29396741508554        2.59782373158533
H          139.64266916442310        0.33143905372696       -2.63277853485787
H          137.77209414271098        0.72983600123969       -4.50072356335303
H          135.85636461005501        0.22069023447798       -0.77414790318079
H          136.23021994334255        2.85945944839512       -4.62994478395314
H          136.22307157283677        3.39539886970022       -7.03557983031083
H          134.35526958335771        1.51967858474555       -9.47524567767381
H          135.26613844268954        2.90841582336388       -9.17076958122891
H          133.92868705203367       -0.14724725021827       -7.81169951523531
H          133.94506065555044       -0.68103714979164       -5.40493152702096
H          132.43922986562413        1.19289119965849       -4.38958665795811
H          130.57344050188567        0.75310563052869       -2.50331045660579
C          147.71313975879778       -0.00645826312317       -0.00579394083781
C          148.33644900062961       -0.30203811152207        1.22281811984026
C          147.68270717136488       -0.63963906519847        2.43531126335284
C          148.64246809815359       -0.82213743358086        3.39390926489965
C          149.91000787110431       -0.59191287366989        2.79472695749791
N          149.67466099332412       -0.29344356161507        1.47883029233362
C          151.16587038469291       -0.66467545000539        3.41197223641961
C          151.17218624826009       -0.94219055050927        4.86762946779005
C          151.82360745841061       -2.06825916645541        5.37732836538719
C          151.82700838582130       -2.33178529661592        6.73536899432268
C          151.18815769612090       -1.45983384068582        7.62096247062106
N          151.15673493631428       -1.74006776099229        8.97565509401303
C          150.53042915767247       -0.33380894437640        7.11896947820562
C          150.52289632784027       -0.08345212345633        5.75838860308406
C          152.39104051500428       -0.49564911391343        2.76370531989822
C          153.67503379071292       -0.51471340897506        3.44013930382420
C          154.61320778752864       -0.33805258860607        2.48619221008762
N          152.56934685489983       -0.28332766020817        1.43002707342190
C          153.90001206314108       -0.19668239758977        1.23284335599703
C          154.55707594194521       -0.00362393565840        0.00014756884113
C          153.93367263218701        0.20858236804256       -1.24563528866919
C          154.58742003652893        0.37700782340962       -2.49294834084054
C          153.62763496436156        0.58593953981612       -3.44615966412968
C          152.35995144484946        0.55939712755976       -2.80517922279265
N          152.59530645949459        0.31555492889842       -1.47804496960369
C          151.10390174437973        0.73361305824589       -3.40155581574493
C          151.09558189923391        1.05094479777832       -4.84899306169634
C          151.74255713080382        2.19142040183673       -5.33180984662399
C          151.72928512631816        2.49760562366852       -6.68091103371506
C          151.06782883572814        1.66061317585257       -7.58337727009005
N          151.09221698603642        1.93781241393801       -8.93884116020066
C          150.43203648554368        0.50950300783477       -7.11069122925864
C          150.44131330529439        0.21635550037768       -5.75880752200049
C          149.87878029037455        0.63265818559815       -2.73916790248299
C          148.59456209654991        0.88102333133691       -3.36834990682771
C          147.65654769225500        0.66696294181392       -2.42196672011328
C          148.37004151802122        0.30285531341260       -1.21457158634770
N          149.70067216688236        0.30232861625283       -1.42971212474538
H          146.61500288517513       -0.73451285056646        2.55022958198529
H          148.48707834396873       -1.10371875133366        4.42252666816547
H          150.39944443606097       -0.10176663085001        0.79531635090347
H          152.31350065879849       -2.75495313151312        4.69578930081218
H          152.32622150690523       -3.21540740128965        7.11770564812193
H          151.89485501892568       -2.34209238579734        9.30389217506392
H          150.98302206717040       -0.94635524096260        9.57135066474730
H          150.02990002758403        0.34512927203508        7.80072421961103
H          150.02671571496614        0.80331617948258        5.37906938536974
H          153.81830055519777       -0.63155835113342        4.50215006752618
H          155.68492913537668       -0.29201407149777        2.59612615172671
H          155.65522349472906        0.33670594975467       -2.63567035238339
H          153.78307686971252        0.73301743281205       -4.50242849286302
H          151.87039901876645        0.22111162022247       -0.77459442887060
H          152.24091377204175        2.85739459560871       -4.63571435134036
H          152.22769544183947        3.39066946151382       -7.04187694702568
H          150.35141267969749        1.51395093500649       -9.47415940032496
H          151.26415868389702        2.90231937410433       -9.17373926249720
H          149.93009869931589       -0.15202364106200       -7.80827791106393
H          149.95334052905409       -0.68364221020614       -5.40112785060954
H          148.45085455762359        1.19229973751714       -4.39034689969305
H          146.58476388083452        0.75189993596376       -2.50478504887852
C          163.72816672739455       -0.00152998124889        0.00271694738921
C          164.34767722939966       -0.29939904238962        1.23263258542822
C          163.69024357507661       -0.63545460891586        2.44362039079477
C          164.64736976228781       -0.82287098928935        3.40378265076202
C          165.91721031701911       -0.59788379648805        2.80716991524370
N          165.68547508756259       -0.29635816774729        1.49127142560395
C          167.17133085163704       -0.68058586471689        3.42640023614152
C          167.17248322822570       -0.96226263947730        4.88138556104175
C          167.81317654366808       -2.09516254980141        5.38945340839920
C          167.81150169829019       -2.36225040686305        6.74682600012081
C          167.17807312953454       -1.48733612308114        7.63336857156973
N          167.14123509748720       -1.77098443692539        8.98727442156461
C          166.53096334402153       -0.35448224362614        7.13298902120983
C          166.52859708852606       -0.10041654257581        5.77306341641905
C          168.39938866096119       -0.51801168578993        2.78148783651247
C          169.68163694554136       -0.55134763983680        3.46090759215598
C          170.62342681877442       -0.37440994864902        2.51064258671793
N          168.58243031199103       -0.29780978199451        1.45002894774718
C          169.91447031752497       -0.21840888813815        1.25661313590415
C          170.57558461065918       -0.01378125768507        0.02838899871177
C          169.95624459636778        0.21317671465302       -1.21652847295496
C          170.61350100537544        0.39168389853564       -2.46070543664481
C          169.65636619910498        0.60609779577450       -3.41525168562556
C          168.38666287438943        0.57363285731416       -2.77832049983671
N          168.61834085385590        0.32151747448089       -1.45213853610994
C          167.13225520319790        0.74799260444657       -3.37802469813772
C          167.12753911948423        1.06752575140396       -4.82518811746153
C          167.77043727221277        2.21133360128829       -5.30531491592713
C          167.75905539494903        2.51857386312544       -6.65427434901837
C          167.10368083353572        1.67937191621840       -7.55908988521820
N          167.12968773086516        1.95796503775054       -8.91431866694996
C          166.47228416713105        0.52479472725112       -7.08904480105629
C          166.47960742542639        0.23059532041857       -5.73739614613547
C          165.90474921633972        0.64355526507268       -2.72057392535944
C          164.62287618191363        0.89229092321573       -3.35460244986682
C          163.68107200147546        0.67551097342093       -2.41265916440733
C          164.38979873686401        0.30933312522995       -1.20308022118502
N          165.72134725068102        0.31002037826642       -1.41268717857687
H          162.62192918973841       -0.72590174311872        2.55642880880882
H          164.48880163441731       -1.10465582276753        4.43185919397008
H          166.41214594775056       -0.10683277476376        0.80916371645502
H          168.29863961902080       -2.78424355959604        4.70715192583515
H          168.30248739337472       -3.25103353685612        7.12786218868674
H          167.87373275670370       -2.37987212971273        9.31546335833768
H          166.97294625761870       -0.97737154979316        9.58466804433360
H          166.03460000741200        0.32678903741285        7.81546794518113
H          166.04067816217020        0.79148228204302        5.39504784151713
H          169.82158313933380       -0.67724227572843        4.52232394116986
H          171.69518836551478       -0.33711032311905        2.62347146445308
H          171.68174611824276        0.35306552590670       -2.60060331614488
H          169.81477347437337        0.76073119562792       -4.47000675559194
H          167.89156167768354        0.22106567341040       -0.75146191322717
H          168.26400526212399        2.87903542888674       -4.60746571901785
H          168.25414944646778        3.41427714599657       -7.01327356169822
H          166.39229269739221        1.53046784093930       -9.45148068933993
H          167.29631103477249        2.92373953920543       -9.14786095873812
H          165.97513986238965       -0.13846700934300       -7.78841506542241
H          165.99472758950159       -0.67180756323956       -5.38156993374282
H          164.48322007228461        1.20573053022943       -4.37650237399977
H          162.60956942555288        0.75983271818271       -2.49973049551822
