124
 energy: -214.836825477562 gnorm: 0.000917472394 xtb: 6.5.1 (b24c23e)
C           10.98917742627316        0.11160267836842        0.06427952624082
C           11.59723701618686        1.35925209630654        0.01335876527717
C           10.94451675179750        2.62394190010023       -0.00186789090159
C           11.90507675348805        3.59282573756187       -0.07584449516392
C           13.17576208752749        2.95036049771479       -0.11680213097942
N           12.93955890912163        1.60696098232580       -0.04958421860338
C           14.43799851227021        3.55103429604695       -0.18720163333025
C           14.46669679729675        5.02960502375051       -0.28793824665991
C           15.09935205718442        5.79532247956703        0.69422980186728
C           15.12803502664005        7.17523988072740        0.60263924945290
C           14.52484797404183        7.81851240726835       -0.48220524140617
C           14.55542204447698        9.23819948335101       -0.58223154390822
N           14.58095466999892       10.38568166801226       -0.66407861271805
C           13.89120386367024        7.05706840683581       -1.46855531104449
C           13.86181500577126        5.67771935044786       -1.36753427524148
C           15.65524700425107        2.86499650988179       -0.17172715192385
C           16.95070895210256        3.50749553437316       -0.30256476005306
C           17.87281314867943        2.52511995892106       -0.23532583073447
N           15.81151262862578        1.51786225374857       -0.05284557477056
C           17.13921535229620        1.28434368736589       -0.07732358500795
C           17.77850738931932        0.03259727626873        0.03379884273245
C           17.14413520731553       -1.22065606279747        0.12905586343706
C           17.79009715356623       -2.47976277276379        0.24763954516590
C           16.82472621714553       -3.44739265027980        0.28436357457675
C           15.55824653910641       -2.80748714909233        0.18227039301174
N           15.80319561794762       -1.46240870788930        0.10106935513386
C           14.29662996789332       -3.41282176728303        0.19173214965991
C           14.26907191888777       -4.89340555394735        0.24396172942169
C           13.64932456407615       -5.55660525151740        1.30586700551603
C           13.62366916835492       -6.93879782220321        1.35499709929315
C           14.21638252203519       -7.68815136611439        0.33417711210726
C           14.18969586933715       -9.11070838785887        0.37909869953834
N           14.16614201562061      -10.26057779975629        0.41654180275784
C           14.83622088319168       -7.02960451758615       -0.73197866798807
C           14.86302008526988       -5.64723188204862       -0.77155898547612
C           13.07816616270662       -2.72624406355893        0.15222691802967
C           11.77416612989582       -3.37075471248708        0.11803299191442
C           10.85960843911480       -2.38082671147398        0.08997822557033
C           11.60344931048615       -1.13339080288948        0.09137591148351
N           12.93623298533613       -1.38018200186659        0.12086988259589
H            9.90398686702133        0.12044625547706        0.07722960259623
H            9.87595665461416        2.76116583892162        0.04363384368203
H           11.75307942764337        4.65989799723769       -0.09092512708668
H           13.66521504444685        0.89792450326565       -0.04474862210852
H           15.55731423079961        5.30088784645449        1.54338504405954
H           15.61674273042644        7.76241182050623        1.37111799197597
H           13.42606954449129        7.55186366210411       -2.31315837030099
H           13.38207089672283        5.09061041702613       -2.14250140850643
H           17.11139959006371        4.56425593665170       -0.44158981847177
H           18.94637615074722        2.60489173969923       -0.29493605998539
H           18.85789802550898       -2.61723106695628        0.30177681427216
H           16.97350481914749       -4.51014283844822        0.38447601949410
H           15.08024214002666       -0.75338289678359        0.03492963350720
H           13.20039344720702       -4.97970811114094        2.10644882157384
H           13.14591995393394       -7.44591636744877        2.18500719795579
H           15.29326209988953       -7.60673768110369       -1.52731294579010
H           15.33215119473182       -5.14090520226504       -1.60775491364512
H           11.60625684647025       -4.43557302171753        0.10446290838599
H            9.78393029175047       -2.45568206482074        0.05962954293172
C           33.74252238365757       -0.08882734837280        0.09522290032851
C           33.13464315822535       -1.30103741921668        0.39522972427406
C           33.78745156450132       -2.51894400302452        0.73614677138739
C           32.82714903668294       -3.47071843765522        0.93326856774122
C           31.55656176013521       -2.86648269706266        0.71060433804000
N           31.79250298115022       -1.55755510293372        0.40069724940010
C           30.29449582604019       -3.46421780832588        0.80594516707313
C           30.26594751481136       -4.91253083297034        1.11980351444004
C           29.62686559314756       -5.37609768647589        2.27219930007762
C           29.59790461939178       -6.72716796758940        2.56733790369926
C           30.20754632597080       -7.64576883436836        1.70767514737510
C           30.17592694346563       -9.03739263791707        2.00573792910488
N           30.15035023034062      -10.16282699494277        2.24433314284908
C           30.84777671926900       -7.18752796590401        0.55249479640749
C           30.87715268216566       -5.83439414345429        0.26642395122515
C           29.07727371184440       -2.80168424278140        0.62679920403677
C           27.78205489792320       -3.45607397986679        0.67501356940909
C           26.85992758443564       -2.49367868640415        0.46678835650895
N           28.92090036811700       -1.47418871167110        0.36868416483986
C           27.59327597870021       -1.25706161284758        0.27827747353024
C           26.95379747189714       -0.02318568355543        0.04044250014837
C           27.58794520769987        1.20787904375392       -0.21328590569825
C           26.94181164219303        2.45108992943134       -0.44473492128227
C           27.90696237964757        3.39117212149426       -0.67787368468243
C           29.17344255006465        2.74757327644989       -0.60252041975830
N           28.92880255078660        1.43234307560678       -0.30911875490638
C           30.43491692258267        3.33137586802216       -0.76432079952313
C           30.46220158554112        4.76814494294295       -1.12524246118273
C           31.08741964950245        5.69948839158560       -0.29252239172740
C           31.11227810811182        7.04101704211740       -0.62887695266477
C           30.51318496400771        7.47830116064591       -1.81409107197196
C           30.53924115674909        8.85767513612715       -2.16474412094482
N           30.56126407565766        9.97278500035292       -2.44852825572933
C           29.88793492707688        6.55033886950630       -2.65226518781148
C           29.86211794250328        5.21120935867770       -2.30673963758566
C           31.65339495397069        2.66028729568571       -0.61407552684156
C           32.95729732467262        3.26898637615137       -0.82925851194437
C           33.87189223021586        2.31057163895592       -0.58002895888361
C           33.12816396466332        1.11364505060110       -0.22837593001701
N           31.79539383951325        1.35907789495814       -0.26808629142772
H           34.82770888367388       -0.09328105194924        0.11128393787043
H           34.85588138337059       -2.63701697775147        0.82130915523658
H           32.97924452426358       -4.49927086947510        1.21771694264444
H           31.06676796672692       -0.87605084040801        0.20529875535787
H           29.16397571831945       -4.66579361328545        2.94780635252663
H           29.10391607128476       -7.07834609464391        3.46557391487067
H           31.31795666485175       -7.89690457224561       -0.11852040531225
H           31.36178990492403       -5.48518872085817       -0.63839261187451
H           27.62146638663573       -4.51030047905905        0.83218543380314
H           25.78651759188237       -2.58740293624336        0.42893339081304
H           25.87404751191173        2.59842234012188       -0.42849155887866
H           27.75798775155203        4.44048153035178       -0.87368280339284
H           29.65189211528700        0.73249035439804       -0.17846896793235
H           31.54103146833930        5.36717785181554        0.63438724037189
H           31.59449247490329        7.75805290145928        0.02512235137294
H           29.42607266397540        6.88456142834681       -3.57393670903637
H           29.38885552494317        4.49311484589450       -2.96704725198821
H           33.12515549629823        4.28722217272219       -1.14108555078114
H           34.94752031758317        2.37362539099372       -0.63154160237983
C           22.98037691124321        0.00507577821645        0.05347215163218
C           21.75193999492209        0.00730625820250        0.05374073257922
C           20.40789421878240        0.01090932946195        0.04916832294112
C           19.18384220813688        0.02040576588533        0.04220992199921
C           24.32439669643558        0.00051247942734        0.04962861035915
C           25.54843613876423       -0.00918683932218        0.04525291651582
