240
 energy: -415.845040833057 gnorm: 0.000908853381 xtb: 6.5.1 (b24c23e)
C           51.35097653343342        0.08266358905402       -0.11652717925856
C           51.97189594052223        0.85276580362575       -1.09331415130216
C           51.34159401680296        1.65504466048271       -2.08402165294676
C           52.32236011853490        2.23832046346788       -2.83858079940623
C           53.57759413417737        1.80676858303385       -2.33152847142040
N           53.32076239475047        0.97695095133282       -1.28256384461836
C           54.85300554142796        2.15086440062144       -2.81354428904041
C           54.89610027802496        3.03540314345864       -3.91387685617830
C           54.92637715531121        3.80496578584447       -4.85155257891747
C           54.97457812723825        4.70609486406388       -5.93945782975204
C           53.80816980292495        5.27796754884372       -6.46140827298552
C           53.91066917306475        6.15805698762513       -7.52388262606407
N           55.07146654336204        6.49206492118992       -8.08250322300366
C           56.18452830135195        5.95224772601061       -7.59264107796632
C           56.19123045245975        5.06305130540729       -6.53259932300107
C           56.07289437089328        1.69327441347136       -2.28841932405947
C           57.36320748218250        2.06823580818105       -2.83268418681350
C           58.29065501595999        1.45451274517677       -2.06791386567681
N           56.22852977448994        0.87048323937637       -1.22340487899015
C           57.56173702132930        0.70964617235162       -1.05932282702611
C           58.19418310509123       -0.03360605005896       -0.04715915048290
C           57.54991794020342       -0.76522156002192        0.96762989243642
C           58.17401289742121       -1.53348803141091        1.98496222195255
C           57.18932424176468       -2.11545047894008        2.73705860975652
C           55.93823271763441       -1.71733719106522        2.19828635176369
N           56.20244157121116       -0.90063284724208        1.13631554791335
C           54.66362796657727       -2.09577541074085        2.65538606356179
C           54.62046320311568       -2.97641935106921        3.75770181319316
C           54.58304363959322       -3.74060185497211        4.69996811158840
C           54.53080107469097       -4.63489208414636        5.79294504792772
C           55.69864780508664       -5.08899363636350        6.41744930027640
C           55.59174004694504       -5.96640515639378        7.48164248903164
N           54.42548810330255       -6.40670785504138        7.94735406504550
C           53.31085909429157       -5.98008892567858        7.35891906060201
C           53.30822568069740       -5.10275573622752        6.28926112006154
C           53.44247325284947       -1.67285654394712        2.10022497984195
C           52.14512180319119       -2.08278738694146        2.60928922102912
C           51.22391481229004       -1.47221537142981        1.83644263643330
C           51.96164028974290       -0.69363829830820        0.85680059801139
N           53.29965804651913       -0.84210864315629        1.04859687781568
H           50.26584717139774        0.09763789895268       -0.12405232306202
H           50.27461326993551        1.76442936788045       -2.19476562267901
H           52.19793982824402        2.90774478250750       -3.67465234768010
H           54.03018612347977        0.51684455600697       -0.72198714499367
H           52.84226072125757        5.03351913771977       -6.03594418600581
H           53.02235782940286        6.61779099058945       -7.94767164640043
H           57.11404964783600        6.24635922087979       -8.07195030697376
H           57.12166644341651        4.64696935631338       -6.16519184871525
H           57.51021474325053        2.71433928907354       -3.68342762223833
H           59.36498387081956        1.49089722397745       -2.15324911823107
H           59.23997631953330       -1.62821276584982        2.11483400283569
H           57.31081710601998       -2.76498080136092        3.58893358882448
H           55.49535405082088       -0.46565557248140        0.55289127623755
H           56.66921814849967       -4.75624980319594        6.06970180934681
H           56.48117405752448       -6.33446386530587        7.98494811480039
H           52.37689482323893       -6.35938323600644        7.76359203137307
H           52.37666288697421       -4.78110246165818        5.83946310463582
H           51.99323714108206       -2.74623586555814        3.44591660386394
H           50.14814550137698       -1.52343251691956        1.89682160719739
C           91.04280447795330       -0.08152597097091        0.04991683089397
C           90.44716161183013       -0.76108315946796        1.10631129277470
C           91.10293309520260       -1.44438910742177        2.16703557278269
C           90.14118259767402       -1.97526678398563        2.98236114402138
C           88.87274599261316       -1.63033691796414        2.44290502043604
N           89.10281597180105       -0.90004548465121        1.31671197087470
C           87.60949024038436       -1.97633808821137        2.95511012679510
C           87.60015995900262       -2.75531782380897        4.13354614951916
C           87.60019090507164       -3.41991948970594        5.14891470936200
C           87.59241315272662       -4.19719777497456        6.32952291734895
C           88.78323229175656       -4.54147972117736        6.97999196187265
C           88.72094298730472       -5.30361701936343        8.13290717624959
N           87.57716227146676       -5.73216795887586        8.66085346904865
C           86.44081611269890       -5.41000122356333        8.04791669711009
C           86.39363005863596       -4.65207234516931        6.89149877669834
C           86.37405584451407       -1.61764129021142        2.39171609451929
C           85.09960237559439       -2.01505058666246        2.95626974278556
C           84.14940360961766       -1.48931806278843        2.15481417979790
N           86.18609821084351       -0.87147431508925        1.27589435516271
C           84.84792302079714       -0.77178776755431        1.10622615045154
C           84.18584161495849       -0.08983491778346        0.06832682432139
C           84.80733097607991        0.60250584223689       -0.98900788675560
C           84.16073640697262        1.31497775674448       -2.03191140846710
C           85.12740567710370        1.84302468293401       -2.84466617540364
C           86.39036767468686        1.46966556735106       -2.31669881665405
N           86.15062412582020        0.72358835263236       -1.19811033974125
C           87.65241553585591        1.80300894931345       -2.83950794049962
C           87.66390495344311        2.58334133797031       -4.01587141666368
C           87.66949165188403        3.25686638544152       -5.02558736935052
C           87.68263635406649        4.04315641868267       -6.19980265747670
C           86.49278282420376        4.48422480664092       -6.79122528196569
C           86.55981063579100        5.25292767586609       -7.93942105992507
N           87.70741586698507        5.59845852841421       -8.51768401052386
C           88.84281716210164        5.18317855728084       -7.96172291872918
C           88.88541006719390        4.41154322172595       -6.81428050483685
C           88.88901366738999        1.42895661288817       -2.28384615216839
C           90.17125583308820        1.79762746940669       -2.85850455632580
C           91.11458107690638        1.27158177408693       -2.05096833143600
C           90.40532364306107        0.58428143850737       -0.98591401887638
N           89.06215529493477        0.70079510770774       -1.16308658269470
H           92.12800421934502       -0.07697133437055        0.04413316359307
H           92.17291472311517       -1.51448730247360        2.28056391481559
H           90.28688352738004       -2.55534972677999        3.87951655422051
H           88.37976573621069       -0.51441833412801        0.71867314691986
H           89.73695650503173       -4.21372818104153        6.58420572124793
H           89.62915181414263       -5.58446791211471        8.65833727568337
H           85.52618704368427       -5.77613436457913        8.50532022718553
H           85.44576145524537       -4.41267879220674        6.42483371271941
H           84.97741371120706       -2.61613882195634        3.84313276636599
H           83.07785776635602       -1.57128777857967        2.23989812868383
H           83.09277023037625        1.41307236695607       -2.13775641898552
H           84.98577866213576        2.44070609446691       -3.73065801104292
H           86.87033587603847        0.32224263434397       -0.60609958498745
H           85.53622546491866        4.22592747705823       -6.35306682607477
H           85.65245217120429        5.60900511760569       -8.41880098154403
H           89.76061645750318        5.48324518120888       -8.45922342625950
H           89.83286997267672        4.09529514004274       -6.39496777251362
H           90.29896134755521        2.37975171085068       -3.75734042453956
H           92.18826170614624        1.32612380563225       -2.13899630485080
C           59.60497893030761       -0.05621257113785       -0.03402213614180
C           60.82079815035485       -0.07841724043010       -0.01569806860112
C           70.57455593784734       -0.15832729491721        0.05850179577956
C           71.79253737228098       -0.14669539847820        0.06604764525760
C           81.55907005645396       -0.09501882605710        0.07326753333096
C           82.77610095650743       -0.09310167409575        0.07330261931932
C           62.23075274282535       -0.10093801094621       -0.00408897806838
C           62.86975282936916       -0.15628856642621       -1.25691791987263
C           62.24628033349317       -0.21472775259977       -2.52924356133071
C           63.23163042650857       -0.32041128168797       -3.47460896384962
C           64.48055114078967       -0.32818524867222       -2.80207239542288
N           64.21681157890993       -0.21916108721824       -1.46771363162228
C           65.75181592638721       -0.45272741550058       -3.39267277834648
C           65.77349801802639       -0.60165773023976       -4.79760116371263
C           65.78753461352272       -0.73387804891044       -6.00385434929064
C           65.81099843006251       -0.89375478342115       -7.40804331255860
C           67.02072432305110       -0.97755546575674       -8.10765828174057
C           66.99058802684367       -1.13535758437438       -9.48166709960054
N           65.86066113994299       -1.21283621014150      -10.18029735397320
C           64.70666533966792       -1.13396018248502       -9.52267447348864
C           64.62718377070057       -0.97505358517095       -8.15057091086192
C           66.98204576022361       -0.44904833960060       -2.71714816565418
C           68.25477171558897       -0.60537399400134       -3.39281418903687
C           69.20366484300223       -0.52695213094138       -2.43631871527507
N           67.16997719712926       -0.28863773164323       -1.38416526695729
C           68.50725875163390       -0.31941370510517       -1.18283341979559
C           69.16613576605641       -0.16254501881670        0.05178144366656
C           68.52308542720696       -0.00675235873666        1.29635667384847
C           69.14140185638404        0.17971659900902        2.55809357794207
C           68.15419342087485        0.26115473979498        3.50355623092841
C           66.90694347817262        0.13106539662279        2.84132419047427
N           67.17513617582536       -0.02225022793383        1.51137413756053
C           65.63527875707328        0.14397814373345        3.44382368514006
C           65.61471526625542        0.28069104632146        4.84985197749259
C           65.60440604741846        0.40309687161037        6.05720589764462
C           65.58844415788002        0.55085807115135        7.46277028651730
C           64.38480412098032        0.57604132443751        8.17713110743949
C           64.42472595166124        0.72677666157317        9.55175856054411
N           65.55842812517905        0.85032200396880       10.23746063859292
C           66.70681391096846        0.82677997543449        9.56578992286113
C           66.77645474953333        0.68065248348386        8.19183451403287
C           64.40306876208864        0.04540041217025        2.77846991269591
C           63.12620762574663        0.05960626244086        3.46542870250464
C           62.17844197967003       -0.01177736248870        2.50704147407894
C           62.88181671646713       -0.06886607902254        1.24089258959265
N           64.22019245467779       -0.04217488124454        1.43952358454555
H           61.18115839964331       -0.18620297348442       -2.69272780677111
H           63.11071036499570       -0.39066074685002       -4.54355940787010
H           64.91816316714205       -0.19867543883128       -0.73486366955471
H           67.96362878400252       -0.91925365332865       -7.57734375776072
H           67.91392127057127       -1.20318441869991      -10.04985418915150
H           63.80421036315912       -1.20149468267509      -10.12343741077178
H           63.66553281559187       -0.91571852162774       -7.65513484501856
H           68.37732105559058       -0.75565561934422       -4.45351997556220
H           70.27279441753730       -0.60919529020206       -2.54312861567888
H           70.20463939932331        0.24826373459846        2.71710776544227
H           68.27308359605394        0.40124330294763        4.56578883119159
H           66.47543890587315       -0.13166908195376        0.78486938906460
H           63.43903354668453        0.47913032189531        7.65783688438176
H           63.50633736981893        0.75025472891813       10.13127342383578
H           67.61260705512889        0.93019903102586       10.15632758555541
H           67.73355504994669        0.66712548196064        7.68440917088700
H           63.00077829018056        0.11862869217990        4.53478492927132
H           61.10599988497786       -0.02078257788719        2.61910982759606
C           73.20088372638206       -0.13715349282445        0.06700214511354
C           73.83585106568488        0.08189720821774       -1.17236802585260
C           73.20947961400988        0.31729327001926       -2.42173879412222
C           74.19136102416778        0.45338660000925       -3.36662071844570
C           75.44297706121989        0.31063727833401       -2.71562604309363
N           75.18288033433402        0.09407842816759       -1.39294442302494
C           76.71162168726534        0.36924453128940       -3.32188900744038
C           76.72258694595308        0.56049442009318       -4.72185366594263
C           76.72720893502047        0.71934314955713       -5.92495030234118
C           76.73671397828822        0.90348187873849       -7.32633376620009
C           77.93745399700680        1.04489397256115       -8.03191325592279
C           77.89174528547667        1.22253546389404       -9.40323051945181
N           76.75504997147068        1.26593873617230      -10.09365712914743
C           75.60935629811998        1.13145008105204       -9.43035467649575
C           75.54547532485591        0.95034783546682       -8.06028589154896
C           77.94915197706119        0.25405237704937       -2.66982708309886
C           79.21913331816835        0.31101630376239       -3.36677132093155
C           80.17568330688275        0.18094331941891       -2.42350360498737
N           78.14556721918981        0.08990136295690       -1.33935829112273
C           79.48544208310193        0.04872049219979       -1.15612472377863
C           80.15015041013665       -0.10101512450053        0.07457741423892
C           79.51793359632035       -0.25795344792032        1.32345592218744
C           80.14635219309385       -0.38197009311892        2.58806236847298
C           79.16472572733061       -0.51542813965591        3.53384025134453
C           77.91244599293726       -0.47386450108259        2.86941263830212
N           78.17124281761249       -0.31393194650722        1.53891902469304
C           76.64312253504136       -0.59279500659186        3.46552052058949
C           76.62841835701495       -0.77508624027022        4.86672094257227
C           76.61908748064837       -0.92299342019303        6.07122979120255
C           76.59907071136269       -1.09215437723727        7.47440117071410
C           75.39407044703400       -1.26025311118046        8.16686801313742
C           75.42737229681828       -1.41929875340172        9.54069351370839
N           76.55593440713787       -1.42029156822246       10.24573361507961
C           77.70552355497698       -1.26111720588745        9.59492034985018
C           77.78162007932363       -1.09521836674220        8.22350561985066
C           75.40698067860563       -0.54555806324398        2.80247973593287
C           74.13881047890146       -0.71261132953232        3.48441712757459
C           73.18201534938417       -0.59145210685546        2.54036630156464
C           73.86892191234298       -0.34348714885759        1.28906149405520
N           75.20833965561964       -0.33231891383510        1.47863124147974
H           72.14486635677177        0.38020816181738       -2.57338708717356
H           74.06550245614061        0.63875743514428       -4.42111059344387
H           75.88699616905457       -0.03950675808606       -0.67473694707820
H           78.88559641127722        1.01583845629419       -7.50863106296491
H           78.80793525681906        1.33605400076692       -9.97578339194074
H           74.70104851718401        1.17129129093593      -10.02470627695547
H           74.59043135001693        0.84495152505531       -7.55973063280058
H           79.33442115649784        0.43212327837475       -4.43203471449149
H           81.24624525296679        0.16569336378828       -2.54894169811575
H           81.21177680565985       -0.36498901885680        2.74915017032638
H           79.29063858781910       -0.63133887747276        4.59817926420588
H           77.46680809703471       -0.24232502095867        0.81226783186044
H           74.45228646092998       -1.26518504765304        7.63145761458196
H           74.50774841130891       -1.55176261979124       10.10332055700552
H           78.60696979420823       -1.26668375379873       10.20096253680584
H           78.73955411628724       -0.96835988053892        7.73370790581457
H           74.02450807986985       -0.90084733313669        4.53996403744913
H           72.11300470612893       -0.66543032870414        2.65435466916608
