124
 energy: -214.737727864732 gnorm: 0.000601765572 xtb: 6.5.1 (b24c23e)
C           10.36746458668620        0.13073029432301        0.03727842600689
C           10.97437640699175        1.26232290581860       -0.49225295572517
C           10.31944092224937        2.40743574379135       -1.02629935434368
C           11.27968328374873        3.29314960351767       -1.42760925273130
C           12.55265063265631        2.72216698984034       -1.14190570635000
N           12.31730362909890        1.49491815879400       -0.58953965192898
C           13.81473170644677        3.27807447633453       -1.38176192503300
C           13.84483053132331        4.64227639221793       -1.96312425244436
C           14.45739093922733        4.87371923176629       -3.19535138479502
C           14.48551663965583        6.14588721833542       -3.74516221885213
C           13.90207988740610        7.20849370576350       -3.05898896439158
O           13.90872272340370        8.47092622890789       -3.55928626503691
C           13.28997280428257        6.99202347466291       -1.82574188956603
C           13.26099382825674        5.71739942499941       -1.28825853165396
C           15.03059721436797        2.64520982360594       -1.11143025294488
C           16.32827648073565        3.26730964187419       -1.30260788360759
C           17.24923181233068        2.35115270242727       -0.93790665152737
N           15.18534433585221        1.38453000548709       -0.62023988281720
C           16.51297772849838        1.17592325419532       -0.51501716236065
C           17.15079043326137        0.00046148695983       -0.06808040638492
C           16.51625073412341       -1.16365776195326        0.40593521658519
C           17.16088932050881       -2.35816863138062        0.82236184775188
C           16.19596662934467       -3.24086616074459        1.22237903057648
C           14.93151999742257       -2.60734384623759        1.07137462161320
N           15.17682359955090       -1.35816448848156        0.56458773400096
C           13.67182765102936       -3.14406403831173        1.35968595602571
C           13.64345121308373       -4.50665890783303        1.94300702127739
C           14.28407783415395       -4.77526344346595        3.15555498824213
C           14.25955640979581       -6.04477067205521        3.70485943359277
C           13.59455304005847       -7.07314999367753        3.03949619811593
O           13.59423736785465       -8.30807462869478        3.60425661890451
C           12.95403437266043       -6.82169223679117        1.82838579152772
C           12.97809727234043       -5.54476951019735        1.28947639534434
C           12.45585527866255       -2.48827031724398        1.13773482728055
C           11.15508094310412       -3.03148674568666        1.49623958869376
C           10.24059078897666       -2.11511954280291        1.11898818781517
C           10.98203367664310       -1.00738830012499        0.54314019607245
N           12.31290749589459       -1.26277472281418        0.57947172507366
H            9.28235620540071        0.14822476562409        0.05713951740911
H            9.24945235627704        2.52353409287895       -1.09424245481100
H           11.12535632056631        4.25480973620967       -1.88961683573843
H           13.04442244260843        0.85001648005341       -0.29843337936751
H           14.90028673437208        4.04521462694385       -3.73667030427110
H           14.95752360989536        6.31809300923308       -4.70646367567812
H           14.36171334979616        8.50955885274380       -4.41245389507105
H           12.84536363648248        7.82844000147574       -1.30073721770104
H           12.79856480530094        5.55313986372570       -0.32134716280643
H           16.49125489396188        4.27403851667763       -1.65182902068398
H           18.32375061870674        2.44096192766247       -0.93620947107042
H           18.22737251385270       -2.51528686195795        0.80773911626295
H           16.34397833582098       -4.24683884552894        1.57970979242083
H           14.45462795127589       -0.68268081875264        0.33714079728628
H           14.78883909237418       -3.97262641080802        3.68169205828141
H           14.74903100020084       -6.25338340262603        4.64815122108780
H           13.10031140889694       -8.94155728569164        3.06671905071510
H           12.44142202706719       -7.62596890431909        1.31156631815259
H           12.49143194796994       -5.35428009829059        0.33942736622908
H           10.98933286358795       -3.97876267938657        1.98376662162538
H            9.16687731228634       -2.15201543780350        1.21745479139063
C           33.10729515394419       -0.04038282412904        0.12998489414529
C           32.50051422979441       -1.09816698298685        0.79498489161535
C           33.15556651294663       -2.16736587576802        1.46806570668713
C           32.19541655980306       -2.98432827067674        1.99565642510968
C           30.92245031313532       -2.43460887747393        1.67111700366535
N           31.15762793443259       -1.30572521519502        0.93837261297762
C           29.66032417113151       -2.93650537719415        2.00972142857132
C           29.63022717221541       -4.16320774471520        2.84286556239479
C           29.01628818072210       -5.32448283645000        2.37200530512115
C           28.98884332589777       -6.47503941530671        3.14464240741221
C           29.57428417239025       -6.47297215893620        4.40860413751480
O           29.56870610605081       -7.57672934124950        5.19962738469104
C           30.18740862414290       -5.31879763615492        4.89279699714082
C           30.21576292107236       -4.17732811702859        4.11139090036906
C           28.44464481289243       -2.36619120980205        1.62415462318610
C           27.14693797225884       -2.86226399544758        2.04513482668677
C           26.22615368282267       -2.06004234561708        1.47145130136167
N           28.29014138287502       -1.27183322916683        0.82846214855606
C           26.96261021707738       -1.06988188011529        0.71035021356888
C           26.32498361835250       -0.05815344420486       -0.03679688994586
C           26.95945959195289        0.97057217223036       -0.75905086162411
C           26.31450775122506        1.96820395656908       -1.53662119473328
C           27.27919239935097        2.78268849377644       -2.06220420934372
C           28.54388651145424        2.31218860015864       -1.61253871738511
N           28.29886966728070        1.20920121498096       -0.83733642185123
C           29.80362959056689        2.84483600139931       -1.90823912705993
C           29.83207231902071        4.07293402505928       -2.73810986744311
C           29.19079503363350        5.23768971077763       -2.30803772542032
C           29.21469324375382        6.38651703939454       -3.07849153282037
C           29.87990796965296        6.38381976282578       -4.30323381121463
O           29.87933587598940        7.52682234055833       -5.03637189423350
C           30.52145849278714        5.22972375660664       -4.74676534425516
C           30.49783153774291        4.08556280133053       -3.96454376638413
C           31.01953449054173        2.30259573478586       -1.47739849588324
C           32.32056551230195        2.89738272425352       -1.74051486507082
C           33.23474171144112        2.08404082587784       -1.17387249988071
C           32.49290835972630        1.00081656581515       -0.55358638139483
N           31.16207386489836        1.17006838965230       -0.74873996137808
H           34.19240598034983       -0.03312708192825        0.15547433603963
H           34.22555789592680       -2.28756224831157        1.52834190019517
H           32.34981439788302       -3.89370448633480        2.55353634613800
H           30.43028397484541       -0.71175413236193        0.55431294707179
H           28.57186767267352       -5.33143185725717        1.38306756405688
H           28.51596380632752       -7.37655023095445        2.77020894390893
H           29.11375666113587       -8.31469277053371        4.77194454327563
H           30.63329206417701       -5.32975271865690        5.87966952120571
H           30.67907135341918       -3.27537359888707        4.49556779125634
H           26.98389076230781       -3.69951075210097        2.70422786306151
H           25.15166819622610       -2.10637753383649        1.54868415343709
H           25.24794344682603        2.04140125126199       -1.67571529184603
H           27.13075935539088        3.62844961478306       -2.71353882710196
H           29.02138816888525        0.65182279268518       -0.39360455218556
H           28.68598591449496        5.24572570652018       -1.34838125469079
H           28.72449784451647        7.29232951045823       -2.74368486594219
H           30.37439378816633        7.41827898135248       -5.85934853526510
H           31.03443377795096        5.23062623697134       -5.70258626472527
H           30.98512003746755        3.18386814109015       -4.31837805925428
H           32.48680648208255        3.81968609099817       -2.27363628386248
H           34.30850989429414        2.18631358830648       -1.15177834346923
C           22.35206727524766       -0.06196628712837       -0.10019765802328
C           21.12359931811638       -0.05765051833231       -0.10471202620934
C           19.77970308474526       -0.04418469657959       -0.10035392331271
C           18.55583760699135       -0.02238475099890       -0.08690720609675
C           23.69601694816172       -0.06319515674168       -0.08948797136954
C           24.91992572564070       -0.06198037540654       -0.06588949536035
