148
 energy: -261.882453508613 gnorm: 0.000635799071 xtb: 6.5.1 (b24c23e)
Cu          14.44810526522567        0.04138853608425        0.01959194504316
C           11.04699849641350        0.23878455255631       -0.11962290916218
C           11.68536588515438        1.07602524237845        0.78358682970586
C           11.01648668841771        1.99151467950127        1.66429986680993
C           11.97756137903873        2.61223912864949        2.39238289613948
C           13.24280504073977        2.08642585076568        1.95832868503681
N           13.03386895804450        1.15572515410020        0.98178427002455
C           14.48476277739323        2.45798738132490        2.47410066424991
C           15.71230463322652        1.93484137994743        2.07006097450841
C           16.98876270560333        2.35471222316720        2.57418906936698
C           17.93317837314635        1.63648129961783        1.91553447735427
N           15.89956002715643        0.97003191584710        1.11579966142168
C           17.24099070987533        0.77384396061509        1.00445898945966
C           17.87383229907093       -0.12901016502896        0.13168787777782
C           17.21210151462128       -0.97987957188905       -0.77125487130225
C           17.87228205282398       -1.92170756484430       -1.62578807142942
C           16.90527095344976       -2.55613852936155       -2.33585454388921
C           15.64733941182003       -2.00088120854978       -1.92459057472470
C           14.40329061101911       -2.39347970541595       -2.41672650022849
C           14.38339467676409       -3.45100109736615       -3.46806973276432
C           14.83645241873008       -3.17203911417606       -4.76401693977886
O           15.26904158670905       -1.90160356373674       -4.98106571982249
C           15.76112717608130       -1.52039313361146       -6.24962069093526
C           14.81678766369513       -4.16174782507301       -5.74637831110296
C           14.34873007057443       -5.42740328157714       -5.42710263654707
C           13.89647379522251       -5.72711366918532       -4.15094225500422
C           13.91101363926028       -4.73573904441169       -3.17024642618432
O           13.49412233498179       -4.93308695864695       -1.89109960155200
C           12.99320967139340       -6.19135123646725       -1.48826794139038
C           13.17506637278752       -1.87460232959764       -2.00576774331325
C           11.89714710796018       -2.25396223291440       -2.54319934608223
C           10.95881679376669       -1.51487330187339       -1.90101244280307
C           11.65525807856310       -0.67423775765985       -0.96856288423269
N           12.99675468267147       -0.91372573654115       -1.05276604089013
N           15.86764863610537       -1.04542208243488       -0.96783383386104
C           14.50138932821810        3.50103944643525        3.53976200339551
C           14.81907009759493        3.15927342525384        4.86067613270365
O           15.09008396697459        1.84612691011479        5.08533948716664
C           15.43855427287463        1.39885204176764        6.37965590349446
C           14.83333621075961        4.13443576494187        5.85756259885624
C           14.53500072884778        5.44793707931812        5.52805965116694
C           14.21985293697053        5.81018732464529        4.22710895232536
C           14.20063443909588        4.83400155530797        3.23139280141840
O           13.91099795946776        5.09073719819154        1.92784524973635
C           13.59078157377856        6.40231273550923        1.51125253612876
H            9.96448451451513        0.30285478876567       -0.16489111760391
H            9.94714958317587        2.12721063078960        1.71194501842903
H           11.85100471050780        3.36041791020370        3.15853705066662
H           17.13664580966362        3.10732750425215        3.33190507434842
H           19.00494890730725        1.68079246201641        2.02718753679393
H           18.93923499736080       -2.07427195023782       -1.66489160276128
H           17.02591766209128       -3.33392410872171       -3.07268802569752
H           14.99031460785923       -1.61316707777845       -7.02445913906451
H           16.05412946604994       -0.47271114467098       -6.15965766213329
H           16.63656871226727       -2.11558619810536       -6.53646061414173
H           15.16062181855157       -3.95563055161103       -6.75116588776013
H           14.33596384990892       -6.19780554831412       -6.19032196513698
H           13.53878652429754       -6.72383210129899       -3.92975336832470
H           12.71585882427645       -6.08595138837634       -0.43773609630980
H           12.10624324303412       -6.47534007960556       -2.06765582706746
H           13.75397131231220       -6.97584159309476       -1.58265643000500
H           11.74755419168351       -2.99105829104910       -3.31595414068254
H            9.88872517109035       -1.52407715722768       -2.03884078113962
H           15.62179652361051        0.32634250717500        6.29148039246033
H           14.62500245955997        1.56719192021845        7.09584680849465
H           16.34889243484083        1.89081439751620        6.74327084374747
H           15.07283360302125        3.88025012954572        6.88143132475410
H           14.54811622810715        6.20663231174433        6.30291020089835
H           13.99336552748485        6.84304354393231        3.99861976077714
H           14.42205465900293        7.09532126578929        1.68951783480704
H           13.39870844751339        6.34205686277810        0.43835012727801
H           12.69235602376585        6.77656675347040        2.01711568611186
Cu          27.90489019177797       -0.01345028136404       -0.04322693346080
C           31.30586956019350        0.15450083510840       -0.22039219007964
C           30.66756579441078       -0.62057794729927       -1.17752005890927
C           31.33633874569021       -1.36124345464429       -2.20967513815942
C           30.37531468206914       -1.99456643323952       -2.92690253050741
C           29.11021955431352       -1.64118205145278       -2.34349908055854
N           29.31916367297650       -0.80673480123639       -1.28354813594547
C           27.86837908634879       -2.10017419670757       -2.78354231427184
C           26.64094275802801       -1.77555557161383       -2.20759846949449
C           25.36460362845311       -2.21614301580026       -2.69402947539278
C           24.42012313206182       -1.66609803168861       -1.88966591669588
N           26.45359306602827       -0.96752366167018       -1.11740064059145
C           25.11218275970899       -0.88575938090588       -0.90708845174594
C           24.47916527250743       -0.14925234133155        0.10985750126610
C           25.14077478029393        0.62430044675802        1.07996101941659
C           24.48050420990681        1.33743931525014        2.13286629556463
C           25.44752235356586        1.95008179734986        2.86181405976061
C           26.70554040812927        1.62094723484415        2.25443711710863
C           27.94964720483482        2.05181988668429        2.71326104808854
C           27.96950953641744        2.94213155159871        3.90954190377122
C           27.51825824022901        4.26514561986413        3.81721591752639
O           27.08765407793271        4.66123607933972        2.59004705400385
C           26.59852852547590        5.97209857092923        2.39231051956734
C           27.53749549169545        5.09664136775100        4.93667963398807
C           28.00340886525244        4.59992504129630        6.14461057413861
C           28.45403101633471        3.29358228450017        6.26022657547748
C           28.43986886234592        2.46395944590794        5.13936774670175
O           28.85536920728704        1.16930461583788        5.15307754881237
C           29.35319716201499        0.59056050066604        6.34204027400802
C           29.17787826632397        1.71862552785901        2.14137023723115
C           30.45578241622833        2.19654467659216        2.59344503015676
C           31.39406678230782        1.66680746826010        1.76995988095901
C           30.69762292772111        0.86389582446980        0.80483697943272
N           29.35616572198986        0.91265783351669        1.05420564277574
N           26.48525410661030        0.80915653626025        1.17310213805334
C           27.85178899069785       -3.00697998061104       -3.96732348746951
C           27.53781417205622       -4.36379576766111       -3.81586232252035
O           27.26998615043165       -4.77305909818859       -2.54738623329661
C           26.92585377722379       -6.11870211236830       -2.28747738242788
C           27.52372322764331       -5.21224499788844       -4.92259207764456
C           27.81854408663206       -4.69889746295618       -6.17655273792838
C           28.12996176809822       -3.35891612325445       -6.35109377812594
C           28.14897622854748       -2.51174972068150       -5.24351926837588
O           28.43520750540208       -1.18424997875240       -5.31308217751916
C           28.75113623795972       -0.58475512851692       -6.55289034045387
H           32.38830544244126        0.20935323963291       -0.27796983249253
H           32.40557742332383       -1.38794752710634       -2.35173219107716
H           30.50181171507363       -2.64630915094913       -3.77661861789622
H           25.21685745227367       -2.85995822649246       -3.54615146811586
H           23.34839411282880       -1.77100422604299       -1.94893727714723
H           23.41349937173716        1.35509495640773        2.28900683910774
H           25.32680615464967        2.56960986556323        3.73591137984950
H           27.37059866320844        6.72428621060747        2.59542434247340
H           26.30720159313391        6.03257669320211        1.34204811179377
H           25.72257214422782        6.17323095562906        3.02093809060324
H           27.19489607693708        6.12092408059227        4.87523996755837
H           28.01577174219503        5.24570777576746        7.01581618269598
H           28.81016267763182        2.93240693254810        7.21575574632993
H           29.62941650966574       -0.43467271889311        6.08856889272215
H           30.24032085808780        1.12218606859098        6.70733131244286
H           28.59093700526510        0.57342007909933        7.13055585377844
H           30.60538058382898        2.85597053042363        3.43345622850893
H           32.46413552752509        1.80213098185577        1.79855032198551
H           26.74503656096671       -6.18404520773689       -1.21292171104882
H           27.74078475033058       -6.80147459735688       -2.55738255013352
H           26.01522240918849       -6.41145111663401       -2.82414367308815
H           27.28700803073138       -6.26241756527749       -4.81587721461657
H           27.80564085235752       -5.35827898727906       -7.03750154594507
H           28.35385224584807       -2.98562511898824       -7.34146799068962
H           27.91863093461042       -0.66526391004375       -7.26247977267964
H           28.94056147328247        0.46929123196738       -6.34134738271421
H           29.64995428573496       -1.02974101316770       -6.99702326366832
C           20.50122594359625       -0.19008598813898        0.17209305368347
C           19.27958896506692       -0.17491232318749        0.15754973447203
C           21.85171306882146       -0.19732524222044        0.16519248549013
C           23.07337839829518       -0.18096407707812        0.15072788351929
