179
 energy: -298.837469832234 gnorm: 0.000510466920 xtb: 6.5.1 (b24c23e)
Zn          26.26139070381380       -0.00952147195557        0.00517318188407
C           22.85195021535299       -0.03636530368506       -0.04728836588964
C           23.48129848855464       -1.27406539212223       -0.10703543363435
C           22.80674754135750       -2.54100850836409       -0.15570423811429
C           23.76536272271711       -3.50040303607689       -0.18518306323618
C           25.03861255689269       -2.83028441514947       -0.16315876144085
N           24.83064256827915       -1.48295314792209       -0.11061874026187
C           26.28892280414433       -3.46076849916204       -0.16073541465415
C           27.52774124414855       -2.81441997130257       -0.09734543885090
C           28.80734030412789       -3.46671973157836       -0.13914022898031
C           29.75399591253516       -2.49589133830261       -0.07501160767524
N           27.72221474786036       -1.46068597292530       -0.01942491150873
C           29.06388463416571       -1.24160506628411       -0.00190634973310
C           29.69570673338375        0.01731593181363        0.05860860318834
C           29.04268564061014        1.26595837537107        0.10276009795096
C           29.71122101899265        2.53363980155612        0.13025712866909
C           28.74803601618223        3.48983360341325        0.15870419412093
C           27.47985970000179        2.81424872921254        0.15749473808206
C           26.22978692359898        3.44188910487109        0.17023788314532
C           26.21531192261100        4.92510557464040        0.24122061834279
C           25.66379199119497        5.67773508589554       -0.79655555244967
C           25.65210833944130        7.06290908656442       -0.72955611001032
C           26.18591154870030        7.71307342880166        0.37483524690636
C           26.73452618299523        6.97161264842446        1.41244538932852
C           26.75202167276626        5.58644338778962        1.34671239836700
C           24.99014878775133        2.79226352179301        0.12150913878579
C           23.70560851477085        3.43815720617397        0.18074830056144
C           22.76362220118224        2.46406613320162        0.11669962391648
C           23.45985721418818        1.21126450338103        0.02647371773782
N           24.80542429838941        1.44320059542144        0.03666161790334
N           27.69743486932552        1.46249547020494        0.11474114710217
C           26.29971822849463       -4.94429939902678       -0.23016021079974
C           25.78340349788875       -5.60432996389051       -1.34595346475424
C           25.79515175464183       -6.98974259801375       -1.40930444211068
C           26.31749081417997       -7.73245152468241       -0.35906173104501
C           26.83118873425385       -7.08340187230196        0.75545853760805
C           26.82513986689119       -5.69804972464237        0.82023372085669
H           21.76629542422466       -0.04565870948950       -0.04909138040229
H           21.73547284553936       -2.66851997617919       -0.15937067422103
H           23.62734438113644       -4.56960563271040       -0.20794444658618
H           28.96026439614812       -4.53084757245045       -0.22042584920958
H           30.82624978161616       -2.61088158593523       -0.08284063826820
H           30.78129994940659        2.66733761254785        0.12131467389908
H           28.88252069343290        4.55951290581650        0.16651570915002
H           25.25781179395148        5.17212497281979       -1.66577645236851
H           25.22520583164339        7.63741360113257       -1.54427885658473
H           26.17450673375486        8.79593519645611        0.42671266621448
H           27.15031483799065        7.47445043727155        2.27864764874436
H           27.16977428607629        5.00866792067162        2.16380807464613
H           23.54924654199742        4.50110774558602        0.27247276566429
H           21.69036466639629        2.57214557161181        0.13516715096906
H           25.38680055666023       -5.02562802938278       -2.17279560065332
H           25.39571118838659       -7.49174867937710       -2.28358095597920
H           26.32380678282782       -8.81540656084387       -0.40900317749607
H           27.23660046839097       -7.65876728797267        1.58008777366125
H           27.21532034733411       -5.19304204643077        1.69692669934868
Zn          58.35767612153578        0.04401146808791        0.01213725467580
C           61.76717454346362        0.07131457857088       -0.04348423286163
C           61.13857662691498        1.31083784853326       -0.04554451842947
C           61.81381738327609        2.57832760177041       -0.03650929694978
C           60.85571822041786        3.53857316173989       -0.02141724511158
C           59.58212196759235        2.86880630527580       -0.02974396390208
N           59.78935945136715        1.52037851374277       -0.03866869196814
C           58.33210991547109        3.49914269317482       -0.00013970126310
C           57.09292287793897        2.85126848425984        0.03208823360129
C           55.81379035631254        3.50556081293545        0.01566060948926
C           54.86650277800145        2.53340967965644        0.03399556369810
N           56.89761902907681        1.49552926697317        0.04988540654016
C           55.55580477613214        1.27670198688685        0.05405556731260
C           54.92315640677604        0.01672133366561        0.05927091450266
C           55.57548571751005       -1.23303456597807        0.05419135589931
C           54.90638831251332       -2.50051874702295        0.03115733084165
C           55.86915106672163       -3.45751468600592        0.02116865016293
C           57.13764224888261       -2.78295982253716        0.04605406980748
C           58.38740184135760       -3.41111005955325        0.02976181539161
C           58.40110867467669       -4.89606512632766        0.03797459719378
C           58.94687340178776       -5.60441667916655       -1.03343366648047
C           58.95768412038806       -6.99119491031865       -1.02516576467664
C           58.42883971181432       -7.68714478103970        0.05340219454921
C           57.88602276500079       -6.98990505389978        1.12418886516210
C           57.86929699638575       -5.60318116939927        1.11716163716931
C           59.62731884936973       -2.76071282349894        0.00511445719572
C           60.91154996220671       -3.40936610033564        0.03189149961896
C           61.85405898736239       -2.43397956321720        0.00776919742250
C           61.15849796940491       -1.17798205036330       -0.02483854754148
N           59.81278903781243       -1.40932994293279       -0.02117568016352
N           56.92066261427021       -1.43051285585125        0.05836496894434
C           58.32194128424804        4.98431108873776       -0.00342941191858
C           58.83884105018595        5.69295703818897       -1.08873674657101
C           58.82790605612154        7.07979477862518       -1.09049204573191
C           58.30611707150252        7.77535253656418       -0.00823712769898
C           57.79187426657187        7.07771443913353        1.07627188023416
C           57.79667939991415        5.69087055824754        1.07928844779433
H           62.85282947418282        0.07998606493971       -0.04700608277973
H           62.88516236551319        2.70530039231996       -0.03485214859324
H           60.99423686449961        4.60762946987529        0.00485871340886
H           55.66171779559356        4.57235513270500       -0.01889737991064
H           53.79433535691631        2.64928328271012        0.02810545672633
H           53.83623456367980       -2.63326154422866        0.01753988973472
H           55.73424795669105       -4.52661670879474       -0.01331438884060
H           59.34902483881154       -5.06271524864844       -1.88245524778569
H           59.38003067438062       -7.53098271542282       -1.86559166140601
H           58.43962745301499       -8.77122773514291        0.05939113416490
H           57.47416549757482       -7.52868692158103        1.97042792804461
H           57.45592998259931       -5.06018821954550        1.95993624930522
H           61.06737679968444       -4.47542695466257        0.07611019473965
H           62.92728799061157       -2.54341581503642        0.01798827188803
H           59.23572131465320        5.15125992807110       -1.94024503821070
H           59.22770373674874        7.61993172153761       -1.94158911175943
H           58.29990195553718        8.85953438428278       -0.01017465753943
H           57.38567690049049        7.61623370285662        1.92543789911976
H           57.40566742329257        5.14760975030320        1.93246409463614
C           34.89717489668697        0.04236927094312        0.05673344322220
C           33.66865004094581        0.04002746840400        0.06206773746275
C           32.32475050463147        0.03498075215546        0.06450359775990
C           31.10051553643918        0.02817023329693        0.06228035336506
C           36.24091806059359        0.04284887840011        0.04882880162126
C           37.46527513895596        0.04279314521937        0.03983369804326
C           50.95024865269658        0.00297436155933        0.04442868353493
C           49.72166868915360        0.00434364680383        0.03612728500008
C           48.37794457210352        0.00805586650310        0.02899250943625
C           47.15361089040523        0.01218146883171        0.02341888466812
C           52.29414295223975        0.00401201597989        0.05179246714092
C           53.51833482499093        0.00712370599558        0.05694977149609
Zn          42.30937011568533        0.02829583453587        0.01982074865166
C           38.86943220048991        0.03897969712699        0.03203361365085
C           39.50948180449803       -1.21739899381503        0.02361732585428
C           38.82848778886125       -2.47782181889156        0.05015074443399
C           39.78182289146739       -3.44444392461066        0.02406239252736
C           41.05467880868116       -2.78167405759658       -0.02651473325943
N           40.85212429652560       -1.42725730331766       -0.01658619522481
C           42.29822119136459       -3.42147715144454       -0.05786370534048
C           43.54597750753263       -2.78919863960911       -0.05829342636346
C           44.81472928455773       -3.45727447168994       -0.13546448271393
C           45.77435926121529       -2.49679899527797       -0.11271035178170
N           43.75724412201290       -1.43710470601136       -0.00519755830615
C           45.10134966979591       -1.23450654804974       -0.03043087545946
C           45.74943748150390        0.01673101927739        0.02003123474692
C           45.10933899633760        1.27221472585711        0.06748550265273
C           45.79067318151476        2.53002340058172        0.14862165315778
C           44.83753135907590        3.49699483914330        0.16806790352254
C           43.56428023771512        2.83755347914113        0.08971801806605
C           42.32058966326567        3.47842814469064        0.08776391270141
C           42.32603268234782        4.96332425389762        0.11543883596763
C           41.76102884222986        5.65320355467077        1.18884343007673
C           41.77009737849816        7.03975726676308        1.21439924488666
C           42.33803265943591        7.75369281584174        0.16794971377789
C           42.89982818223287        7.07479229583532       -0.90480119463872
C           42.89697114927735        5.68823362992947       -0.93142724018941
C           41.07268157244562        2.84636587610586        0.06323659672528
C           39.80349649144426        3.51645141423725        0.01479677053390
C           38.84410869933210        2.55555465833015        0.00183181473081
C           39.51751211751245        1.29124032855766        0.03189453022498
N           40.86169275364855        1.49315877774912        0.06234066169290
N           43.76660680887221        1.48398324446362        0.03932680449240
C           42.29295382294138       -4.90657100529655       -0.09243270168520
C           41.73703560964279       -5.58667728257218       -1.17654769068276
C           41.73516957139108       -6.97317380228860       -1.20820040388312
C           42.28184951684126       -7.69623656522527       -0.15675350215151
C           42.83421488566945       -7.02676149830079        0.92673511169498
C           42.84336038635264       -5.64032096893908        0.95901950139298
H           37.75781136643660       -2.60027371584655        0.09019053102061
H           39.63773525684847       -4.51260828318685        0.04835819360692
H           44.95203702088323       -4.52407492561389       -0.20910918852504
H           46.84439823460269       -2.62420356116308       -0.15442745052991
H           46.86145060617723        2.65037964784058        0.19218274384157
H           44.98249293785416        4.56278369383568        0.24132940204417
H           41.32796405451199        5.09690166074648        2.01280576537017
H           41.33252201476126        7.56519493448097        2.05608083258445
H           42.34287772578045        8.83762553015269        0.18845289518849
H           43.34215064917716        7.62775410572084       -1.72612322000005
H           43.32556301346460        5.15964011828415       -1.77572512328320
H           39.66524006471295        4.58515659838358       -0.01749727407371
H           37.77396036931400        2.68422498212748       -0.03256726037147
H           41.31930037460521       -5.02299677586794       -2.00339298719165
H           41.30542942540316       -7.49138802156780       -2.05834434114200
H           42.27738237274220       -8.78008249865067       -0.18165690784906
H           43.25949458323595       -7.58697839097116        1.75210626037333
H           43.26522594935252       -5.11863577495456        1.81094555119627
