237
 energy: -376.044067355700 gnorm: 0.000764302586 xtb: 6.5.1 (b24c23e)
Cu          27.83317179825844        0.00812618232212       -0.01443956015863
C           24.41993800479419        0.08827844527064       -0.03827799713837
C           25.06986445084685        1.21740037561358        0.43846909890108
C           24.41380998335372        2.40026507196712        0.92011767656689
C           25.38685468728568        3.26848464691553        1.29337474047739
C           26.64626585126589        2.62341777109787        1.04121265388864
N           26.42317923143905        1.37997661068909        0.52347486186470
C           27.89610745236130        3.18992054528073        1.28883395366821
C           27.92640207932433        4.56876736978006        1.85891183440475
C           27.92001416401877        5.67727460044203        1.00743155940015
C           27.87912657150406        5.47851136682707       -0.48443053137342
C           27.95235823588074        6.95634801862641        1.55032983681523
C           27.99019698272376        7.14745827307006        2.92782832256303
C           28.04769378865150        8.53730983629115        3.50207974530310
C           27.99635238542063        6.03721130870059        3.76570479164070
C           27.96456744517349        4.74902369445155        3.24441892897050
C           27.97195267743553        3.55213993265315        4.15777564600021
C           29.12125003261559        2.57130543510863        1.04794136160626
C           30.40140622860650        3.16879519970809        1.30155711400649
C           31.34228233918988        2.25944744329086        0.94052199148835
N           29.30183421370416        1.31266259501571        0.53813021713930
C           30.64393902349851        1.10211674188321        0.46496225294261
C           31.26922366032520       -0.06720283631560       -0.00340942006123
C           30.59608792404308       -1.20931373568574       -0.47242649097479
C           31.24606941524197       -2.39773180153957       -0.93973368256283
C           30.26852455793454       -3.26719471739138       -1.30164771936426
C           29.01414741726953       -2.61315004856179       -1.05887544937246
N           29.24649265899466       -1.36157524943294       -0.55247764842203
C           27.76465078602157       -3.17698058113949       -1.30915661264411
C           27.73781814565749       -4.55774652295433       -1.87470362063467
C           27.79958859647241       -4.74420896419807       -3.25926711531343
C           27.88763658950507       -3.55184029918656       -4.17432036132085
C           27.78009782896492       -6.03334221669346       -3.77639605942902
C           27.70081280335980       -7.14019266008128       -2.93575773251880
C           27.67489852551551       -8.52727764855740       -3.51904845800666
C           27.63805940522745       -6.94308322198098       -1.56124762190908
C           27.65605401738949       -5.66129382376911       -1.02179233443695
C           27.59106944033278       -5.45658116120176        0.46842767854461
C           26.53936455788534       -2.55237478220913       -1.07903311053435
C           25.25472351238841       -3.13787743187224       -1.34876447036839
C           24.31842057487133       -2.22301384408872       -0.99334270812439
C           25.02246118330611       -1.07127120564112       -0.50408611313533
N           26.36766882402700       -1.29815824009326       -0.56790393940286
H           23.33516541335625        0.11435569830128       -0.04692637117215
H           23.34427960090868        2.53444357478110        0.96236364196863
H           25.27603401305153        4.25924358511606        1.70466672203100
H           26.96726910173104        4.95115719609522       -0.77136139990001
H           28.72918653817216        4.87604300826349       -0.81006193705817
H           27.90780408171338        6.43493158043027       -1.00565371072413
H           27.94740752674482        7.81678421783041        0.88912944577645
H           27.61297523407342        8.56367683443301        4.50152511365703
H           29.08700529324585        8.86636886534038        3.57465013597582
H           27.51314252248294        9.24293766780607        2.86554209535740
H           28.02546951093533        6.17651041476710        4.84147257348462
H           28.85505580203246        2.93836347567731        3.96984990506957
H           27.97694970201933        3.85986406416527        5.20299672353146
H           27.09117394181762        2.93265449191097        3.97864630476928
H           30.54998477008194        4.15850915358326        1.70282186778770
H           32.41545021800464        2.35370396954118        0.98776389922933
H           32.31440893063079       -2.53847502520570       -0.98059193610438
H           30.37617311748395       -4.26451879878879       -1.69708177077915
H           27.03548779862703       -2.88830462436182       -4.01552094319784
H           27.89990720459265       -3.86245431785121       -5.21862130056622
H           28.79625211253440       -2.98276332419273       -3.96825304344059
H           27.82909154939750       -6.17899367765470       -4.85062754560266
H           28.49258266584876       -8.65814352916006       -4.22960102335345
H           27.76543132678396       -9.28199848440867       -2.73796582470569
H           26.73652039353593       -8.69286224415677       -4.05252429958746
H           27.57619245620176       -7.79923868901801       -0.89740694250394
H           26.70011665650351       -4.88399771464306        0.73349157469082
H           28.46222941321466       -4.89599958561382        0.81258129882687
H           27.56026016235958       -6.41177795086508        0.99176998459479
H           25.10323046741907       -4.12344465052249       -1.75957571494567
H           23.24451569030882       -2.30626995233445       -1.05232524724915
Cu          65.07562132497233       -0.01816374551217       -0.04567159910623
C           68.48927276512423       -0.07132394685936       -0.08190576804809
C           67.84026066969302       -1.21325029273973       -0.52845648986955
C           68.49718506981847       -2.40196897349632       -0.99427975672481
C           67.52465410183051       -3.28226052325991       -1.33959103887590
C           66.26474882309864       -2.63764316264666       -1.08879057066550
N           66.48698238876865       -1.38396872301472       -0.59601599636002
C           65.01521903719816       -3.21199335930317       -1.31911177962709
C           64.98511322138813       -4.60185885289411       -1.86177129341304
C           64.99961457803241       -4.81452316753351       -3.24315158985998
C           65.05149460030327       -3.63996991017302       -4.18365576268093
C           64.96521582970921       -6.11409303070556       -3.73498410530115
C           64.91743180867434       -7.20404548044851       -2.87178944108133
C           64.85683437499105       -8.60530531290118       -3.41726762690698
C           64.90411517650404       -6.98071307586292       -1.49892771431086
C           64.93780768934846       -5.68959256111990       -0.98522478672632
C           64.92274086879567       -5.45566181228373        0.50200573428063
C           63.78960765505114       -2.59408722540086       -1.07869634078965
C           62.50994185317703       -3.19512415663265       -1.32624826635913
C           61.56827204621464       -2.28706773367267       -0.96408076016376
N           63.60794626845127       -1.33406528712419       -0.57265669743129
C           62.26561424994885       -1.12727946640279       -0.49303162126271
C           61.63927902974453        0.03829295345450       -0.01654355200685
C           62.31144441320254        1.18101232553414        0.45217655372544
C           61.66041950530155        2.36002350779132        0.94133951575951
C           62.63728738068288        3.23457431750439        1.29272530796109
C           63.89230696953707        2.59427972200251        1.01854520524406
N           63.66099699354086        1.34362233346840        0.50948810505638
C           65.14148772295273        3.17161079781815        1.23769308684024
C           65.16805992723117        4.55708197600543        1.79166364031587
C           65.11183048631716        5.65451128599546        0.92675644394785
C           65.02720518490909        5.43523903003752       -0.56038168829155
C           65.13355859635072        6.94020507182226        1.45235245941634
C           65.20951634100251        7.15015223020140        2.82647993492908
C           65.23896854474124        8.55219014448578        3.37267494320770
C           65.26568072639677        6.05205867231106        3.67682774253500
C           65.24538872999325        4.75613584269157        3.17239825984916
C           65.30328201957181        3.57206477073446        4.10057684382574
C           66.36736866740753        2.55984577027915        0.97790775840865
C           67.65179333040015        3.16503831449079        1.20130822653449
C           68.58891747254259        2.25651165716240        0.83209074113099
C           67.88564353930076        1.08951275240212        0.37925312993246
N           66.54005356791883        1.30152972568660        0.47724025317103
H           69.57420007885699       -0.08800806361468       -0.09384749178150
H           69.56687173525172       -2.53226394765685       -1.04408739045429
H           67.63606880505709       -4.28140950439888       -1.72990224064876
H           65.96259078436282       -3.06185549366844       -4.01755368294476
H           64.20063722713196       -2.97823138513249       -4.01114255460185
H           65.03255723768575       -3.97104540966692       -5.22157427239717
H           64.97621268357739       -6.27901020213198       -4.80747772227995
H           65.29034572950384       -9.31590721733910       -2.71320554049920
H           63.81682109086209       -8.89115410814863       -3.59157687957082
H           65.39077780515704       -8.67665725241609       -4.36521761767958
H           64.86755730904100       -7.82476355280823       -0.81792230258378
H           64.04247934338581       -4.87511386971007        0.78483609590948
H           64.90696832557659       -6.40031967745216        1.04474499972904
H           65.80618321101049       -4.89114043351520        0.80615742535843
H           62.36217946364268       -4.18512908667288       -1.72708312477319
H           60.49519144082377       -2.38407568924980       -1.00723754053507
H           60.59186886583599        2.49099288368333        1.00380456423960
H           62.52884189762533        4.22580443452298        1.70300080807245
H           65.87733966371077        4.84388946634945       -0.90562479010081
H           65.02120995521567        6.38504976568730       -1.09427308489193
H           64.11648754829156        4.88779666415781       -0.81099144849952
H           65.08926945223072        7.79237734948740        0.78195469184032
H           64.42329534728498        9.14293484257940        2.95277355716149
H           65.14759087319810        8.55103530354568        4.45874127312634
H           66.17894862707887        9.03962922462343        3.10544882644757
H           65.32441141758598        6.20491704958275        4.74953501614455
H           66.19535195069383        2.97592198173744        3.89870114720539
H           64.43280087770799        2.93046704608368        3.95151682125282
H           65.32704655396876        3.89382889873976        5.14131212100170
H           67.80268312365010        4.15962456476473        1.58999894242935
H           69.66293318162523        2.35405552042752        0.85776745261343
C           32.67460027165779       -0.09525967442861       -0.00270366535508
C           33.89858288672094       -0.11794137423136       -0.00371939447249
C           35.24161747512959       -0.13252392860879       -0.00922293334171
C           36.47198577588946       -0.14047068229426       -0.00904361058770
C           37.81025912137557       -0.14285441958367       -0.01059263293202
C           39.04064479783798       -0.13806874319018       -0.00725344044071
C           40.38348589022991       -0.12754570200555       -0.00883981240625
C           41.60786559649340       -0.11446811310813       -0.00444346074276
C           51.30029537971532        0.03735937596542       -0.01390990845449
C           52.52466468880613        0.05321914988348       -0.01159762078995
C           53.86750719393699        0.06636085605296       -0.01273784459460
C           55.09792339098657        0.07354089157723       -0.00632546780923
C           56.43620762634978        0.07727755024993       -0.00827066440475
C           57.66650571203846        0.07754250067831       -0.00491768771688
C           59.00961316436252        0.07019067435118       -0.00633646957094
C           60.23380090131366        0.06061433149365       -0.00783705332059
Cu          46.45410333706320       -0.04097305414067       -0.00943199552333
C           43.01269242770533       -0.09466195862102       -0.00603113677719
C           43.66128697518023        0.06610634015864        1.23206261180079
C           42.98625732134267        0.21103684074746        2.48761759241725
C           43.94555244606304        0.33462753654056        3.44042473583601
C           45.21271439028580        0.26549354100858        2.77064686315318
N           45.00673002712510        0.10303558313717        1.42649210186564
C           46.45141351390705        0.35037002902832        3.40409538330377
C           46.45040224750896        0.52073813063811        4.88686917579282
C           46.47512633812399        1.80352738858386        5.44099583077218
C           46.50295563196011        3.01024676649403        4.54114255890921
C           46.47282484740271        1.95143263837853        6.82332187547817
C           46.44563681581993        0.84135977951752        7.66058935156103
C           46.46259611205078        1.00961018612539        9.15598652540388
C           46.42223866499199       -0.43107061254562        7.09800147591408
C           46.42371744152741       -0.60235598496362        5.71888154125499
C           46.39567165566974       -1.98245570816446        5.11784014864839
C           47.69117659908775        0.29215690688401        2.76970118737644
C           48.95717176095111        0.38072784710852        3.43941113477077
C           49.91803762338555        0.28926549844147        2.48456518940834
N           47.89941533460669        0.14687149848220        1.42397161338502
C           49.24513224319902        0.14343602746994        1.22798044513904
C           49.89547639882583        0.01595714864433       -0.01306377568076
C           49.24676292498216       -0.13315466899583       -1.25256903506101
C           49.92145128954395       -0.25826752307440       -2.51042073544759
C           48.96213285837715       -0.38322858066169       -3.46304967253498
C           47.69529833943082       -0.33623872130666       -2.79072037438334
N           47.90146602065141       -0.18185062453671       -1.44563163391171
C           46.45679529018761       -0.43643968172485       -3.42241939929027
C           46.45805606122770       -0.60987792677312       -4.90482968135137
C           46.37596157022826        0.50909130985616       -5.73871362984936
C           46.28713281629669        1.88763234040226       -5.13999343941651
C           46.37662672077760        0.33529561771048       -7.11760756570730
C           46.45639175551893       -0.93565662167156       -7.67801942055604
C           46.47533208617919       -1.10739061925640       -9.17299466651847
C           46.53840262049707       -2.04174171952336       -6.83883304219609
C           46.53962794828585       -1.89130429356117       -5.45686611237018
C           46.62534925528027       -3.09401999524725       -4.55527977386810
C           45.21720051739015       -0.38970796221399       -2.78668698822203
C           43.95152579939728       -0.49927825172742       -3.45394390455343
C           42.99059862561113       -0.40363003595675       -2.49956390105565
C           43.66314094962105       -0.23639407825730       -1.24546828894054
N           45.00874421869531       -0.23204449663196       -1.44239504229289
H           41.91525036084180        0.21643510337161        2.61300769959926
H           43.81696470855908        0.46294499105749        4.50325830415554
H           47.40191523129521        2.99964363120381        3.92174169263656
H           46.49154790031531        3.93088248848771        5.12378825993720
H           45.63861634388818        3.00626893244311        3.87443231206441
H           46.49066359366485        2.94785957408520        7.25266120165602
H           47.48496775829474        0.91498442970339        9.52934022112951
H           45.85482787008304        0.24359821736466        9.63868923913324
H           46.08535629971646        1.99156442397044        9.44202110693826
H           46.40094386735561       -1.30278537192157        7.74393340089419
H           45.49724374509213       -2.11299071388444        4.51146311991362
H           47.26062314342172       -2.13120004345548        4.46875948124323
H           46.40584030617799       -2.74590263376743        5.89519167091791
H           49.08399127210946        0.49658720488841        4.50389289878614
H           50.98877265644550        0.31655106149641        2.60940975897545
H           50.99224757452462       -0.24967393877379       -2.63746137553416
H           49.09049044859680       -0.49587677500106       -4.52769276534997
H           45.38584388476934        1.97832364094543       -4.53061612842515
H           46.25968493890954        2.64927736175634       -5.91867789844539
H           47.14668879379560        2.07676714215564       -4.49425881301679
H           46.31224598152352        1.20394518495817       -7.76480132179123
H           46.10269041607679       -2.09187968596657       -9.45655205722262
H           47.49783051637864       -1.01020078081343       -9.54542641453557
H           45.86496136026759       -0.34542124942132       -9.65860911062369
H           46.60030471196785       -3.03705352717513       -7.26667609331503
H           46.65490006099326       -4.01509034041445       -5.13661183006268
H           45.76329400795358       -3.12874905178268       -3.88648186103820
H           47.52433175586036       -3.04128727919504       -3.93810260947183
H           43.82493594351826       -0.63346988422340       -4.51629275002055
H           41.92005542665087       -0.44204584644071       -2.62309528215483
