189
 energy: -346.743415669326 gnorm: 0.000852626482 xtb: 6.5.1 (b24c23e)
Cu          28.62080937319062        0.02603585401469        0.01588986647681
C           25.21435818518005        0.04808247998202        0.09275634208797
C           25.85129934822646        1.26102359599937        0.30618244294946
C           25.17808840353824        2.51158132058389        0.51100573858298
C           26.13837310975337        3.45445135598950        0.67578347751210
C           27.40793492299469        2.78501199151954        0.58578347616012
N           27.20251601306410        1.45578830439086        0.35406209834031
C           28.65432822158976        3.40655384956277        0.69559251009343
C           28.66695163365126        4.86253095447491        0.97881323976909
C           28.11684332171608        5.35941775777605        2.16262565400821
C           28.12057825754146        6.71747507295493        2.42591107460785
C           28.67257625760918        7.60898563674253        1.50121617708793
C           28.67108075505437        9.00784481118983        1.76510682702040
N           28.66845115975321       10.13881359113448        1.97808577149989
C           29.22459105793493        7.11672960491701        0.31482931526085
C           29.22290870326504        5.75684115137015        0.06124729778574
C           29.88685716709264        2.76512901334932        0.55710564541088
C           31.16466800933505        3.39397427783611        0.73750416215417
C           32.10938165780760        2.44134262838070        0.53317759016792
N           30.07328535300343        1.44143940814922        0.25798137682255
C           31.41665894184992        1.22424752181903        0.23380040341526
C           32.05128832376851        0.00100339592275       -0.04712846867337
C           31.38950465044270       -1.21188154083991       -0.30949440314931
C           32.05312746535460       -2.43746948528775       -0.63832777873873
C           31.08773646054891       -3.37531216523036       -0.81279478720659
C           29.82661261739011       -2.72921079125089       -0.58276143555831
N           30.04313096519027       -1.40946316048970       -0.28619041138147
C           28.58037164213843       -3.35244797204795       -0.67394607676454
C           28.55892019080656       -4.80626645660304       -0.96736871074681
C           27.94746560373008       -5.28458545227138       -2.12862562593078
C           27.91744607841935       -6.64013671362208       -2.40264556073905
C           28.49717653051844       -7.54795014331806       -1.51144095778120
C           28.46149637052769       -8.94442946672300       -1.78536398890285
N           28.43146096672002      -10.07376741989761       -2.00506136362527
C           29.11037786387259       -7.07445275522537       -0.34764892098204
C           29.14170149771891       -5.71694871077081       -0.08320760209384
C           27.34845681789951       -2.71474406338449       -0.50685103955406
C           26.06758566207174       -3.36764139363168       -0.54058259599979
C           25.12807033995068       -2.41349074543686       -0.32795092220006
C           25.82588953357196       -1.17226212042293       -0.15091814486746
N           27.17089130532452       -1.38392766869630       -0.26139642833132
H           24.12958802476677        0.05457695705220        0.11786009225238
H           24.10708114320458        2.63901924059719        0.51502574338319
H           26.00586766865698        4.51280151865737        0.83268573966637
H           27.69706394018582        4.67018790528722        2.88664519904849
H           27.69627071838511        7.09517286677829        3.34883282778672
H           29.65083081267966        7.80519277430416       -0.40543530110855
H           29.64049787128644        5.37968764034201       -0.86547934106227
H           31.31524018595432        4.42801398792258        1.00225555702562
H           33.18155744867504        2.54261727112335        0.58523023908006
H           33.12114108223355       -2.55390295276427       -0.72981624227577
H           31.21394033965345       -4.41016812915647       -1.08694961227958
H           27.50596170292988       -4.58262268275251       -2.82704301739311
H           27.44495779381895       -7.00309556617358       -3.30789808533131
H           29.55787906554412       -7.77575770792375        0.34686902872066
H           29.60662311191698       -5.35468730395139        0.82675705971837
H           25.91428031917770       -4.42361239674744       -0.69450918011566
H           24.05650383777607       -2.52746759797372       -0.28258629338628
Cu          65.85157996627646       -0.00066538647742        0.03113223221943
C           69.25875040034516       -0.02433074222237        0.09292744194716
C           68.62096164648173       -1.22293034632083        0.37400765946032
C           69.29335147116586       -2.46175183033726        0.64278980803645
C           68.33247792443248       -3.39346398538830        0.85931575151594
C           67.06338386422156       -2.72809017987097        0.73757277304824
N           67.26966273921620       -1.41309182341427        0.43605721216402
C           65.81663448700979       -3.34174416682509        0.88205003646660
C           65.80415569629815       -4.78129123528202        1.23970352303184
C           66.35637545924934       -5.21606125853669        2.44676824194407
C           66.35465888692760       -6.55875991525104        2.77953264412453
C           65.80255267455564       -7.49721527700174        1.90256009013067
C           65.80738889638367       -8.88078118281815        2.23746686618838
N           65.81498583661006       -9.99935806054356        2.50804141418742
C           65.24777929195417       -7.06711633330091        0.69353984872785
C           65.24751991748212       -5.72204090244417        0.37033371831008
C           64.58424700625828       -2.70690762653114        0.71488680414749
C           63.30649179739837       -3.32491067236754        0.93008141376577
C           62.36193450817952       -2.38208076220545        0.68399619303892
N           64.39795046488565       -1.39917967089998        0.35247541613545
C           63.05460985479377       -1.18153953637241        0.32362142912022
C           62.42030518904511        0.02849253447891       -0.00983188408895
C           63.08258891636002        1.22596787964083       -0.33379837438191
C           62.41894418943301        2.43537469256522       -0.71809519650221
C           63.38501318811881        3.35954017378061       -0.95150590677249
C           64.64676477173957        2.72211367128107       -0.70132427087592
N           64.42975124144452        1.42041245676001       -0.33392524604058
C           65.89365518294804        3.33562060240067       -0.83838306439268
C           65.91660568609601        4.77122470432799       -1.21088252045170
C           66.51846714580789        5.18350331280906       -2.40212564159459
C           66.55098702722762        6.52218491790771       -2.74894279478309
C           65.98361182568931        7.47935875829241       -1.90237643061898
C           66.02287224599652        8.85836554047594       -2.25334223604321
N           66.05741344514929        9.97299468583241       -2.53703770481325
C           65.37995901331057        7.07201314289479       -0.70904750581475
C           65.34605008940571        5.73079157121885       -0.37165447280339
C           67.12560022880152        2.70487299396790       -0.64699696454609
C           68.40735568306941        3.35231493609562       -0.72513820243397
C           69.34655997476898        2.40980919942678       -0.46474585124628
C           68.64781689070462        1.18168018395553       -0.21489513008985
N           67.30251258458181        1.38938317332262       -0.32939376638212
H           70.34360173257782       -0.03116955484380        0.11409529431209
H           70.36422653419721       -2.59013232927568        0.65070782928283
H           68.46436238767242       -4.44226069183214        1.07121680482838
H           66.77657014041404       -4.48999856849245        3.13359233976632
H           66.78084708038041       -6.88803898473189        3.71996477505752
H           64.82119245934904       -7.79215445604908        0.01032184570642
H           64.82812588585918       -5.39354099733575       -0.57393193670042
H           63.15597591585185       -4.34494297277854        1.24454687791395
H           61.28989161840875       -2.47944848499757        0.74543760249902
H           61.35032166514996        2.55046912239551       -0.80404706009089
H           63.25882076002230        4.37908588906740       -1.27802889699100
H           66.95074815177779        4.44315904751365       -3.06582698054335
H           67.01604425974553        6.83412675756390       -3.67678379030156
H           64.94200600181954        7.81140947946360       -0.04879573905564
H           64.88900078308428        5.41999354873580        0.56105729637950
H           68.56146777111012        4.39770127240559       -0.93887432333758
H           70.41854713743395        2.52410270387405       -0.43182798190716
C           33.45683853198502       -0.00906729811868       -0.06505196321363
C           34.68140300313187       -0.01378805194949       -0.07433191357936
C           36.02432636757123       -0.01491433030211       -0.08156638042666
C           37.25511989474731       -0.01577024407521       -0.08269464586381
C           38.59317970701172       -0.01165257252145       -0.08222714577123
C           39.82403571121601       -0.00687566927202       -0.07831507264571
C           41.16672909615707       -0.00211311449480       -0.07149808136880
C           42.39150493372806        0.00504090325160       -0.06258031078618
C           52.07852014875578        0.04243291216028       -0.02881296002419
C           53.30325111393101        0.04752566034085       -0.02775459505483
C           54.64639195157455        0.04979707854486       -0.02618877799922
C           55.87716512518836        0.05051184056972       -0.02734101937711
C           57.21565588971455        0.05004567651229       -0.02784413905923
C           58.44631314614268        0.04868858291058       -0.02844398606549
C           59.78967726186875        0.04438453479729       -0.02613199360307
C           61.01417952805631        0.04062307986435       -0.01999385170227
Cu          47.23479398117069        0.02272331292637       -0.04166669813723
C           43.79645266768311        0.01020796069395       -0.05574916516227
C           44.45176521235202       -1.15541478706599       -0.49295476422255
C           43.78058438344237       -2.35356453183755       -0.89849807796397
C           44.74173464239624       -3.24319916293445       -1.25491367217080
C           46.00697588400160       -2.58906199095910       -1.07673407718516
N           45.79741242537429       -1.32105265975391       -0.60436388688310
C           47.25141247826411       -3.17171800876901       -1.32658838558609
C           47.25744303590587       -4.54677255135348       -1.88367938777976
C           46.68685163035232       -4.80662270917583       -3.13177758664598
C           46.69158526944160       -6.08671251926286       -3.65612346649876
C           47.26500219181938       -7.13752805427578       -2.93396437340861
C           47.26803991096427       -8.45693352812608       -3.46840900670562
N           47.27008515763934       -9.52338311017629       -3.90078910631073
C           47.83494929064108       -6.88316740254106       -1.68296298350436
C           47.83225233705383       -5.59928943938506       -1.16782383432492
C           48.48972221912498       -2.56782383526119       -1.09724026115843
C           49.76146267837836       -3.15207079690624       -1.41622624332050
C           50.71328272384481       -2.25500763773417       -1.05344156143355
N           48.68612928962256       -1.32419027042735       -0.55907485066419
C           50.02995506556312       -1.11516734703603       -0.52007972661336
C           50.67305745490101        0.03675330750165       -0.03164861725310
C           50.01783505783523        1.18311841941502        0.45380568008956
C           50.68876510822845        2.32814444945810        0.99167841996173
C           49.72754218102538        3.21714787908852        1.34964048446680
C           48.46247641976715        2.62279669900584        1.02301395453993
N           48.67217014592696        1.38100562562811        0.48544828454312
C           47.21787216803320        3.21669680543192        1.24428571214428
C           47.20909189240773        4.59118989888480        1.80280821818403
C           46.62741283357278        4.84468721879630        3.04713303961093
C           46.61844374876724        6.12390806348920        3.57346696925827
C           47.18890294922384        7.18029289676763        2.85704684495756
C           47.17781207884109        8.49873259187992        3.39377005730745
N           47.16773856902959        9.56397330949780        3.82893883146677
C           47.76963341885713        6.93235223177507        1.60975420055587
C           47.78064845333830        5.64927138992871        1.09263586062212
C           45.97975291407301        2.62478263651330        0.98484625211617
C           44.70837054384923        3.26963348720235        1.15284493920048
C           43.75663860835133        2.37323822594986        0.78812487943699
C           44.43979014194323        1.18011281536062        0.38781735938469
N           45.78321619660091        1.35538470860441        0.51050637158024
H           42.71108015757438       -2.49029718888257       -0.89906266580721
H           44.60933850421477       -4.25757060504115       -1.59472397306046
H           46.25082846009399       -3.99215401833322       -3.69919636614159
H           46.25221238018450       -6.27954678251580       -4.62783158103471
H           48.27703828686585       -7.69607251891142       -1.11888716612387
H           48.26506897068661       -5.40776417048519       -0.19242714786748
H           49.90412343851729       -4.11818692764311       -1.87253765922814
H           51.78399542888138       -2.34475354708351       -1.14323443298166
H           51.75818202295240        2.42677359868876        1.08747495445510
H           49.85991709908388        4.18413685270673        1.80721386241942
H           46.19356324932019        4.02593469285304        3.61003174511341
H           46.17061938341729        6.31183329823007        4.54227486347364
H           48.20930827478684        7.74956058002656        1.05001624059381
H           48.22179394856433        5.46279090092746        0.11999378043854
H           44.56591144859375        4.28298953153747        1.49161882649587
H           42.68618777543093        2.50213052984614        0.77991394194028
