236
 energy: -414.843446791338 gnorm: 0.000539351525 xtb: 6.5.1 (b24c23e)
Zn          52.25830336148752       -0.44691031670199       -0.31605437614258
C           48.83991538119203       -0.42565374369968       -0.31227579734583
C           49.46456865536118        0.32416482641866        0.67686109790500
C           48.79026159781629        1.09730270107683        1.68212824829660
C           49.75004239512196        1.66924667818213        2.45294076933108
C           51.01837987392696        1.24844253761717        1.92654983069262
N           50.81594736496794        0.43928273492686        0.85349914075693
C           52.27304213291462        1.61112127656309        2.45085548751197
C           52.27883356765406        2.47583925210463        3.56763787963396
C           52.28178779734962        3.23219545634488        4.51683534156349
C           52.27912161663518        4.11896097880573        5.61732786658119
C           53.47248950990474        4.55506436622806        6.20518114741517
C           53.41207527085218        5.42865639623567        7.27618467694716
N           52.26785982477623        5.88127199826726        7.78295920278162
C           51.12894763279328        5.47085285016161        7.23023079537559
C           51.07988457426647        4.59936751605089        6.15716633881417
C           53.52136818105246        1.19288198488134        1.95459438673857
C           54.79065530024073        1.55541380984156        2.51511643449648
C           55.74569137937417        0.96719426981573        1.74884571318195
N           53.71919799737602        0.39397843266008        0.86796377625238
C           55.06575160409040        0.24429682916738        0.71382379278887
C           55.69846546836137       -0.47152645202752       -0.31764559815721
C           55.05484444910478       -1.17949319075481       -1.34777602898965
C           55.72352954392544       -1.91551201475277       -2.38090728007610
C           54.75950620511715       -2.49114721667192       -3.14548573212198
C           53.49594901700192       -2.10767143415695       -2.58593299817851
N           53.70614835569957       -1.30912632742710       -1.50134144298653
C           52.24123806403519       -2.50899241339259       -3.08007925919856
C           52.23310381762484       -3.37424584916867       -4.19645325989427
C           52.22344611470007       -4.12823038687754       -5.14749359194975
C           52.20917784526655       -5.01144663496069       -6.25075420545042
C           53.39753754961939       -5.45275389816125       -6.84492639319213
C           53.32761293596533       -6.32000481332025       -7.92043066810526
N           52.17858742174832       -6.76204453242887       -8.42568254170115
C           51.04444648851351       -6.34751556277670       -7.86628532976055
C           51.00489118985580       -5.48150039749211       -6.78834500605987
C           50.99245041144830       -2.12938874621978       -2.55377419428486
C           49.71783731837760       -2.53756631223176       -3.07493986156214
C           48.76692137270620       -1.95237168028101       -2.30311222355245
C           49.45296236399734       -1.18373163009739       -1.30234901957996
N           50.80242509150800       -1.31462733117693       -1.48272153823708
H           47.75421905753731       -0.41933170416226       -0.31069707112097
H           47.71909009198872        1.18355050871621        1.77627523606326
H           49.62195511856456        2.31746866363464        3.30550233800616
H           54.42692341221591        4.21238647365973        5.82400819384819
H           54.32252305695631        5.78356978191735        7.75069048250305
H           50.21374366967365        5.85935710056508        7.66781522917242
H           50.12989483429436        4.29148217671129        5.73714486722494
H           54.92532349638337        2.18003192240372        3.38395355679504
H           56.81673386040215        1.01609731606518        1.86567393708360
H           56.79370118610345       -1.98184335128027       -2.49711102284197
H           54.88455458661434       -3.12069659125023       -4.01219843818992
H           54.35547573932411       -5.11839459108321       -6.46517225135265
H           54.23402240651860       -6.67812978154770       -8.40021028224453
H           50.12517016847084       -6.72768051897075       -8.30266474189565
H           50.05836050212190       -5.16992550502661       -6.36325733462958
H           49.57985248697139       -3.18771242423067       -3.92446928327762
H           47.69458409996475       -2.02754713751936       -2.39334498812533
Zn          85.05266940377071       -0.56631323189474       -0.37333052394469
C           88.47223240806586       -0.52832361772310       -0.35901765776106
C           87.86740454461035       -1.77501814663492       -0.46182957948590
C           88.56189378544566       -3.02791174291423       -0.56497862957617
C           87.61744401134621       -3.99994191259282       -0.64005485396536
C           86.33849909141280       -3.34910081278407       -0.58145638432285
N           86.51939914049524       -2.00633268423203       -0.47627207109867
C           85.09394776026204       -4.00545255867144       -0.61939509340720
C           85.11456711574120       -5.41264692641504       -0.73972306604712
C           85.14071790123485       -6.62069963613502       -0.85367252254283
C           85.17855103672515       -8.02683572976127       -0.99098693436488
C           84.00394319735094       -8.78670170196849       -1.04213225742241
C           84.09936729334629      -10.15969414881108       -1.18228868304431
N           85.26054864971506      -10.80349749688265       -1.27210563543275
C           86.38185571851811      -10.08837075044390       -1.22404638347483
C           86.39588398633826       -8.71212764533444       -1.08575254674300
C           83.83479964375182       -3.38164058794357       -0.55389434023799
C           82.57635596264473       -4.06824458026729       -0.58320769050550
C           81.60547957749685       -3.12061940766420       -0.51202820139870
N           83.61447616457437       -2.03895142569798       -0.46314259081623
C           82.26475261246500       -1.84951553734877       -0.44021291400108
C           81.61112164617030       -0.60444092042559       -0.38855303319301
C           82.23697967033675        0.65475800524295       -0.32986901529745
C           81.54925752814067        1.91076255073308       -0.25869883986911
C           82.49830190823396        2.87932329498625       -0.17649969627115
C           83.77177616499338        2.22085336128104       -0.19839579450165
N           83.58192520369499        0.87395186598153       -0.29561988264868
C           85.01605390391360        2.87260977755408       -0.12114413710837
C           85.00227689268846        4.27916306020981        0.00730376713668
C           84.99593872534247        5.48678562705065        0.12829609050135
C           84.99103745048991        6.89213885810512        0.27809452795076
C           83.79311406702965        7.61441575987981        0.33477021516226
C           83.84524020418573        8.98813808221828        0.48942188384465
N           84.98560986746847        9.66696182383359        0.58799838750558
C           86.12877131082358        8.98776576139469        0.53452612081555
C           86.18613925215598        7.61410769939454        0.38201656703555
C           86.27516999898538        2.24450186172875       -0.15165873665789
C           87.53885002114750        2.92340789064817       -0.08230903578439
C           88.50511214053468        1.97255543459890       -0.15112644319237
C           87.83928095335085        0.70473461332099       -0.26096573960938
N           86.48646347880445        0.90619980867018       -0.25730369398358
H           89.55786729664098       -0.51638298613658       -0.35440209554200
H           89.63499411253872       -3.13738810678989       -0.57748356253144
H           87.76272570321707       -5.06527083389558       -0.72594881848428
H           83.03677317966439       -8.30351691665750       -0.97325734932486
H           83.20410145894604      -10.77344040584394       -1.22497900021336
H           87.31169284980540      -10.64481344913350       -1.30017533853355
H           87.33258492924674       -8.16885730879162       -1.05161718893829
H           82.45902753396915       -5.13823334541057       -0.65044688052200
H           80.53635133495617       -3.26232830118158       -0.51216978252763
H           80.47737972452889        2.02932335175114       -0.26594809741851
H           82.35660450793245        3.94613115725410       -0.10599810846283
H           82.84166310190230        7.10186050785651        0.25939680990882
H           82.93111975910425        9.57304589152681        0.53713304734516
H           87.04062910500294        9.57216112016501        0.61829837321099
H           87.13947724386050        7.10086966725915        0.34421086433351
H           87.65981738955702        3.99160187727421        0.00575038419655
H           89.57540482434985        2.10563867630867       -0.12995276228407
C           57.11268855551398       -0.48004534226052       -0.31899789498476
C           58.32781802211039       -0.48576728826756       -0.32054539696746
C           68.04720268031234       -0.54423013002499       -0.35009330959262
C           69.26392011147743       -0.55958446388051       -0.35194326607448
C           78.98354950173157       -0.62305677155938       -0.39816163133622
C           80.19944021208470       -0.61781680868479       -0.39323052871729
Zn          63.18788243231339       -0.51086684606633       -0.33467443978643
C           59.74175193906058       -0.49272034303457       -0.32389881306659
C           60.38010401816494       -0.07382332974131       -1.50442537829594
C           59.70532691324854        0.36985742039690       -2.68885693746804
C           60.66498407604724        0.72616489589244       -3.58206812891602
C           61.93096099179982        0.49955725195780       -2.94875547906393
N           61.72795604565535        0.01049499684592       -1.69290065085476
C           63.18331053847491        0.75295640980098       -3.53733189836702
C           63.18222503052669        1.28728970812805       -4.84517346789128
C           63.18174780978664        1.75964886287733       -5.96314767011350
C           63.17719719206962        2.31141054418647       -7.26442074857444
C           64.37089627331049        2.61471495456877       -7.93003386852241
C           64.31048724265273        3.15763452217761       -9.20100411166490
N           63.16583649988869        3.40943545610048       -9.83127366437030
C           62.02670873209565        3.12341483898642       -9.20561009404874
C           61.97760587184625        2.57887069097900       -7.93489032086840
C           64.43637628968813        0.52535851662160       -2.94050062522976
C           65.69988126051017        0.77169083345704       -3.57016379327934
C           66.66214575067646        0.41196993667700       -2.68106667574483
N           64.64475130626190        0.02828102501576       -1.68748545082455
C           65.99274368581440       -0.05123661560596       -1.50175828122943
C           66.63711422844865       -0.53233846464584       -0.34536496803645
C           65.99454034872576       -1.00476870100757        0.81550838540444
C           66.66600247138831       -1.47891482443597        1.98933237719856
C           65.70520836484813       -1.82801361710053        2.88417090575229
C           64.44072972256008       -1.56406338189554        2.26351124481207
N           64.64695972209390       -1.06701595813435        1.01023153315930
C           63.18886518257011       -1.77662564156381        2.86821450246002
C           63.19007078054815       -2.31483021369374        4.17441101183485
C           63.19234893064933       -2.79034363622002        5.29103147134480
C           63.19876876518128       -3.35215817004931        6.58794009866734
C           62.00653614633612       -3.62140898942595        7.27048085675587
C           62.06935219822309       -4.17739721323357        8.53570774875515
N           63.21496678825355       -4.47242375376305        9.14509723664373
C           64.35280936637248       -4.21863493968885        8.50334535100288
C           64.39948637690908       -3.66484484908699        7.23656176456879
C           61.93596368322928       -1.50697447292830        2.28812411186421
C           60.67161661759410       -1.71730596566726        2.93024099428643
C           59.71036822119586       -1.35125401060868        2.04268823906885
C           60.38255011468836       -0.91742641025308        0.85314169497213
N           61.73057212317426       -1.01697868916968        1.03305406572790
H           58.63450021503765        0.40493872170552       -2.81209527399636
H           60.53493887098798        1.10981839263358       -4.58156192548071
H           65.32550206095671        2.42646153383206       -7.45363622933400
H           65.22109147694083        3.40330695263839       -9.73992894817943
H           61.11127475415664        3.34126944571327       -9.74827701729860
H           61.02729968367690        2.36187566954789       -7.46215101730558
H           65.82729523002391        1.16470066973115       -4.56632213148790
H           67.73180266275757        0.44932626688281       -2.81036118250275
H           67.73599087142667       -1.53014970624010        2.11115672117524
H           65.83425030862459       -2.22528147744260        3.87842631234498
H           61.05117081875040       -3.39748004494756        6.81136652154183
H           61.15985507923946       -4.39750036729939        9.08738524337519
H           65.26910282716855       -4.47181690876535        9.02897795318055
H           65.34872284957048       -3.47538271016980        6.74999890513282
H           60.54374025737877       -2.09712913527643        3.93147845415858
H           58.64004821446586       -1.37333769956408        2.17314815658264
Zn          74.12473071322562       -0.60137494760472       -0.38533616230336
C           70.67393905054891       -0.57289548406066       -0.36116604959982
C           71.32039308439604        0.38897946754077       -1.16156927907118
C           70.65271514715495        1.38138788774904       -1.95057152484041
C           71.61622454931540        2.11886580967089       -2.56171158427137
C           72.87864831196251        1.58409703948226       -2.14482646531254
N           72.66862792459750        0.53616172460950       -1.29748676472608
C           74.13243110541968        2.07900068254400       -2.54661616647187
C           74.13139778798795        3.16701800909280       -3.44780875676845
C           74.12281855093055        4.09437975492390       -4.23066534190311
C           74.10685324778497        5.17053040045430       -5.14681480314272
C           75.29397494483835        5.73566945773646       -5.62751346617667
C           75.22100672899560        6.78419549530563       -6.52701763242690
N           74.07016409865552        7.28955424579447       -6.96409108958486
C           72.93714899874065        6.75820273068404       -6.51152097680700
C           72.90059565392094        5.70845654729584       -5.61135711704441
C           75.38424165864488        1.58689833646696       -2.13552738259282
C           76.65036967866327        2.11603761131561       -2.54907846856952
C           77.60934572469111        1.36759121779306       -1.94380916809014
N           75.58667287796679        0.53568158532384       -1.29124404770826
C           76.93397284832227        0.37650307082495       -1.15893235473127
C           77.57209392724209       -0.62193169564513       -0.39976084207723
C           76.92783674815975       -1.61566282737518        0.36018286562273
C           77.59754957619384       -2.61735494041835        1.13621148999734
C           76.63454640625385       -3.35700857222957        1.74587050406708
C           75.37143446827365       -2.81083191734993        1.34523932720031
N           75.57967807502770       -1.75943665334297        0.50253840282035
C           74.11755582646498       -3.28796845403333        1.76823062775910
C           74.11404969790900       -4.38175615386758        2.66248613467761
C           74.10657367104606       -5.31776396402514        3.43502425351267
C           74.09708815506974       -6.40491739001437        4.33826133537024
C           72.89480726114924       -6.93886049631449        4.81750810876692
C           72.93840170958785       -8.00186477459643        5.70164612766129
N           74.07472498778293       -8.54964081777480        6.12553356400016
C           75.22181424779811       -8.04781784095803        5.67484780732053
C           75.28770442775593       -6.98707566312315        4.78916280319118
C           72.86614434076169       -2.77267585882401        1.38508704328946
C           71.60076032763479       -3.28839695820071        1.81696920634569
C           70.64129398055744       -2.53188152361251        1.22280099806329
C           71.31459779679565       -1.54732230111037        0.42862700710563
N           72.66185740871032       -1.71780901166988        0.54499768573202
H           69.58337100222195        1.49931577749076       -2.02000485374519
H           71.49020801670133        2.95408605183398       -3.23216151989636
H           76.25320666092544        5.35460519835852       -5.29845583926425
H           76.12631250006905        7.24101951309701       -6.91648944472476
H           72.01636114902399        7.19418242189371       -6.88842396853120
H           71.95489364393521        5.30558253401529       -5.26922427910410
H           76.78126484304534        2.95227042742982       -3.21741385472540
H           78.68011440227812        1.46898531976249       -2.02220496508169
H           78.66766617723545       -2.73221303634086        1.20463316400339
H           76.76085626581190       -4.19734030580788        2.40991621269428
H           71.94671635789608       -6.52276027600453        4.49865749336581
H           72.02082157881402       -8.43512528288662        6.08935328318516
H           76.13000389688038       -8.51824554699877        6.04072574667350
H           76.24425649606970       -6.60994168907397        4.44796517786568
H           71.47005742428472       -4.12469108776496        2.48522593911915
H           69.57109127559623       -2.63178035210743        1.30683676325505
