296
 energy: -512.235542992510 gnorm: 0.000978112619 xtb: 6.5.1 (b24c23e)
C           44.49362891507666        0.08214833961406        0.01321230499963
C           45.11079641647508        1.30566592614783        0.23917616253027
C           44.46764346345927        2.56045679132251        0.43262931988394
C           45.43575858958194        3.50347062932128        0.63360794064355
C           46.70166360530092        2.85300507327520        0.57904166494159
N           46.45512686602122        1.53312416060275        0.32912608443449
C           47.96860297014714        3.42942079316494        0.72571059689763
C           48.00721376595843        4.88189623975285        1.01749555259257
C           48.63398045030411        5.77820031481218        0.15233928815423
C           48.63833830429492        7.12845911621371        0.46453783500574
N           48.07177376807677        7.62032551844617        1.56172497196892
C           47.47491977014310        6.77273909853622        2.39347791633263
C           47.41429979647483        5.40701053033338        2.16540187686080
C           49.18022502308799        2.74296108168524        0.61735277988104
C           50.48039979188345        3.35343011911659        0.82995782712548
C           51.39539517434548        2.38208816916044        0.63254177538203
N           49.32706513853496        1.42231314021935        0.31989350059877
C           50.65284151419942        1.17852162646458        0.31089149082375
C           51.28293258356380       -0.05127092127674        0.03040093885469
C           50.63979698059028       -1.27358302809499       -0.24204445875699
C           51.27661302553482       -2.50583083158175       -0.54672695609105
C           50.30397654482865       -3.44766900942495       -0.73758492812072
C           49.04187708364716       -2.81962565124564       -0.54677017960479
N           49.29689392267616       -1.50516096497397       -0.25739391667223
C           47.77580290130319       -3.40402378945801       -0.65779747148435
C           47.73426963327913       -4.85427200122739       -0.95705584016871
C           48.30855788046057       -5.79005737314861       -0.09704483436664
C           48.24103642848110       -7.13619126526212       -0.41993805290619
N           47.65491174077591       -7.58798666193793       -1.52392989187768
C           47.10715586195411       -6.70279462735814       -2.35053375320982
C           47.11911198387393       -5.33780162505375       -2.11163062032467
C           46.56277213410855       -2.72274600376884       -0.51039130434614
C           45.25451308489148       -3.35572281636490       -0.57763179107971
C           44.34663780880200       -2.37673882302143       -0.39167839952572
C           45.09891905095925       -1.14916473563971       -0.19992981770144
N           46.43003833222920       -1.39743600991574       -0.26802361351512
H           43.40844961791308        0.09981021639461        0.00509019338402
H           43.39989101341249        2.70954543949322        0.41204935344210
H           45.29220196752751        4.55923528175072        0.79667267739705
H           47.17541812561756        0.82663986121231        0.22288258810209
H           49.09723446239884        5.42431628271282       -0.76090438300441
H           49.11643431804126        7.84576068573222       -0.19611357845706
H           47.02444323738511        7.20392139763826        3.28274897955202
H           46.92836733040977        4.75279766201418        2.87955320269653
H           50.64809867685571        4.38165144356805        1.10646675901337
H           52.46952200815551        2.44570925441255        0.70122586048914
H           52.34379430600809       -2.64257388503683       -0.61468751488542
H           50.44464413203578       -4.48389368893632       -0.99829975860337
H           48.57919537000804       -0.80779790132976       -0.08935866460951
H           48.78491692627388       -5.46984348834035        0.82200993034353
H           48.67640926948280       -7.88336626654466        0.23718085074981
H           46.63811156593968       -7.10208115660090       -3.24505252333744
H           46.67137006693053       -4.65240215535014       -2.82130249547688
H           45.07994452958322       -4.40819682367829       -0.73273669291164
H           43.27044785215512       -2.44811715144582       -0.37231348035455
C          115.35418189434674       -0.08220000997821       -0.01912705242979
C          114.73443816952906       -1.27302122635046       -0.37521589402121
C          115.37443762328394       -2.47916918475492       -0.77666938424439
C          114.40403848442894       -3.40845073453503       -1.02515087458022
C          113.13989676980762       -2.80276016155814       -0.77287119214611
N          113.38963789137861       -1.51415138023942       -0.39540837179489
C          111.87161738542861       -3.38177781879551       -0.89549176803247
C          111.82801846350988       -4.80778450521096       -1.29624851897158
C          111.18849005598612       -5.21047328914742       -2.46831760300340
C          111.17948688100628       -6.55444036294852       -2.80626924076814
N          111.75316287245400       -7.49302601692187       -2.06010652230737
C          112.36195243237100       -7.11851421817318       -0.93960158680698
C          112.42810683335657       -5.79911238812509       -0.52033028463894
C          110.66213550704876       -2.71981838936736       -0.67165279095471
C          109.36146019691296       -3.36136192876752       -0.74260739576124
C          108.44850467520797       -2.40430702887918       -0.47757623964318
N          110.51792477486070       -1.40560805348352       -0.34611341839868
C          109.19285249473324       -1.18317844352252       -0.23637506896204
C          108.56489282833127        0.04613240532398        0.05096856682873
C          109.21082138575676        1.26283039699367        0.34171365606286
C          108.57726027856609        2.50471936650184        0.61177337179372
C          109.55206279964239        3.42916231068143        0.86654867047027
C          110.81212968348291        2.77642966932595        0.76746660808428
N          110.55397947363289        1.47190463226384        0.43870283611960
C          112.07944977183686        3.34259235139366        0.94176037629272
C          112.12432537307346        4.77152608388779        1.32966399478419
C          111.54005147585728        5.22062713923915        2.51377851878762
C          111.61218621856631        6.56681072486528        2.83543530197210
N          112.21197688981954        7.46553647855626        2.06149555355656
C          112.76905536232709        7.04670103000223        0.92961958392101
C          112.75342294884064        5.72136359750037        0.52508429799040
C          113.29079131724630        2.66242667551802        0.77624690260411
C          114.59999089409833        3.25191791191939        1.01133616146327
C          115.50578444191341        2.29148355949397        0.73869315779111
C          114.75123002654182        1.11321400950309        0.34891616080495
N          113.42080590923028        1.37029399264643        0.39364974263539
H          116.43934822920639       -0.09690248517290       -0.03272056015595
H          116.44172033410017       -2.60437295369239       -0.86598417139814
H          114.54517018267398       -4.42258643788733       -1.36199159854937
H          112.67112984508675       -0.83556355189954       -0.16631021337513
H          110.71889589212330       -4.47862610272031       -3.11465496083409
H          110.69155675533909       -6.89107435039926       -3.71630401388091
H          112.81783109964643       -7.90818869493278       -0.34949639784757
H          112.92372833174124       -5.54315412319594        0.40863526446084
H          109.19247196142248       -4.40506256582241       -0.95227617787953
H          107.37472110201315       -2.49203835403031       -0.43518202054915
H          107.51072539192504        2.66172356900901        0.60484476176699
H          109.41412569763021        4.47376128983665        1.09308696998671
H          111.26970172167415        0.76924569512354        0.28488279494233
H          111.05253449467625        4.52220499670207        3.18359703110339
H          111.16937883128257        6.93855356890439        3.75486923437129
H          113.24914974445416        7.80461939361633        0.31752474141100
H          113.20922663026809        5.42838110350595       -0.41314660504124
H          114.77653691057913        4.25966147354120        1.35119500673082
H          116.58186786525673        2.34220161520785        0.79457059471757
C           56.48467647396675       -0.09571477171181       -0.03714461618571
C           55.25622291931169       -0.09310977142226       -0.01904781690396
C           53.91225838470961       -0.08487048785407       -0.00165439863557
C           52.68841361983079       -0.07190029516291        0.01693569905674
C           57.82854650236561       -0.09540486203912       -0.05125654857795
C           59.05273223518551       -0.08844171541017       -0.06126208725084
C           72.51989472354676        0.02131082828575        0.07582247412376
C           71.29094144154570        0.01006831536097        0.07862010027028
C           69.94765977758284        0.00557619258115        0.06938112492484
C           68.72317175919979       -0.00672559017683        0.05906615760339
C           73.86320686240313        0.01729761375802        0.07080915570802
C           75.08774827246882        0.02182405454222        0.06088080506557
C           88.55774209718616        0.00463428257619        0.07497068259869
C           87.32877421698615       -0.00206083827395        0.07631133333411
C           85.98548001517034       -0.00278922028203        0.07429438827058
C           84.76092247689441       -0.00558171360017        0.06429798479861
C           89.90098605436670        0.01003967085887        0.06367410383054
C           91.12544837079560        0.02165739043670        0.05071008797008
C          104.59183050739271        0.10152936175881        0.01606454958778
C          103.36337055033688        0.10338789594591       -0.00383411508099
C          102.01963060586758        0.09951708933345       -0.02148031081790
C          100.79550667542894        0.08920478388818       -0.03973570105539
C          105.93567879598902        0.09000869827039        0.03383438668100
C          107.15957682924939        0.07185722502150        0.04753312098532
C           60.45739920095252       -0.08107704427410       -0.06123539713168
C           61.09027407200069       -1.31135701366879        0.20219538517647
C           60.44713166825368       -2.54470073287665        0.48166470419870
C           61.41665314114555       -3.49159557212556        0.66956188012410
C           62.68074078537745       -2.86343335801803        0.50240142259373
N           62.43269685055323       -1.54505667864802        0.22893648600452
C           63.94374733467413       -3.45693379686391        0.61828773260644
C           63.96237154458996       -4.91335300006712        0.89678448484862
C           64.52935502050126       -5.41913569657678        2.06599400862188
C           64.51769580721623       -6.78747410158415        2.28552852525645
N           63.99159472418870       -7.65452861504164        1.42636071903208
C           63.45240689833469       -7.18112318694527        0.30773276510095
C           63.41086814082654       -5.82976653845815        0.00219757278285
C           65.16677123099669       -2.79631313035878        0.49652231813230
C           66.45622159530529       -3.45969421764669        0.57184342404600
C           67.38995345177290       -2.49953655122721        0.41054831763698
N           65.33865778009033       -1.46356948017992        0.27475986332012
C           66.66944136003029       -1.25486673871902        0.22806074261413
C           67.31938724363620       -0.01842398884508        0.03664915342750
C           66.68542653390014        1.22028995177767       -0.18205889818622
C           67.32671416432409        2.47449049460763       -0.35186533127211
C           66.35758120860535        3.41821319487759       -0.55661120711171
C           65.09572312493330        2.76440531277355       -0.52553251671466
N           65.34444144339669        1.43929344564715       -0.28602977357495
C           63.83371786772025        3.34955078461341       -0.68427728029980
C           63.81426792387663        4.80478977179655       -0.96826799489770
C           63.20126621504588        5.70443821158451       -0.09692018111501
C           63.21149145967853        7.05594854659977       -0.40369024682963
N           63.77920086329743        7.54538383099383       -1.50131455371309
C           64.36344176190802        6.69454024406304       -2.33856409256241
C           64.40944359741637        5.32724236025196       -2.11601370983778
C           62.61111297396279        2.68174666374883       -0.59672602152980
C           61.32404117883160        3.31736981827240       -0.81625559599524
C           60.38989933723303        2.36087708606528       -0.63679988693658
C           61.10799258243845        1.14200027995326       -0.32053532623118
N           62.43845269479582        1.36134952171733       -0.31335809569628
H           59.37903318187082       -2.68021562255061        0.53527004676906
H           61.27104101000604       -4.53143863135450        0.91233374857068
H           63.15050101247494       -0.84430139844486        0.07742725628858
H           64.95899112864241       -4.74835677168463        2.80036068175421
H           64.94852802444052       -7.20463895098970        3.19099918326471
H           63.03406071785491       -7.91408404884191       -0.37588359960709
H           62.97111757641811       -5.49085053045055       -0.92830630787184
H           66.60494122896903       -4.51761640407738        0.71491772304175
H           68.46358488670803       -2.59860469443868        0.40409444036245
H           68.39322916522164        2.62705193150962       -0.31516202769235
H           66.50174799974297        4.47563403276310       -0.70659731154835
H           64.62773141139590        0.72696635841090       -0.19575570610887
H           62.73670023602988        5.35185527370853        0.81614050273859
H           62.74415072916165        7.77605848272314        0.26155024683476
H           64.81544860270598        7.12406462959728       -3.22782123449101
H           64.88614219323287        4.67025931846272       -2.83380945393722
H           61.17729888018351        4.35115260147741       -1.08363178427752
H           59.31766793979423        2.44357753090505       -0.71422573121884
C           76.49165182189911        0.01675990819737        0.05027770996965
C           77.11469014461375       -1.21829040573654        0.31664457029885
C           76.46185135811069       -2.44227847061528        0.61396553461133
C           77.42290996383427       -3.40132499299310        0.78280796022275
C           78.69105649480836       -2.79010978382334        0.58632316488739
N           78.45421607004731       -1.46865604189176        0.31725865312945
C           79.94798212795580       -3.40148717160618        0.67101884510725
C           79.95166561895476       -4.86041094557685        0.93605000645235
C           80.54067794307151       -5.38734562076493        2.08480865744771
C           80.51482744330734       -6.75783079750724        2.28940882396628
N           79.95407996283146       -7.60747894413628        1.43480287293548
C           79.39281038189542       -7.11381617384863        0.33595316344666
C           79.36361731711995       -5.75870871244089        0.04624647490229
C           81.17732388939902       -2.75672393464980        0.52843980314975
C           82.45933254770732       -3.43677495052650        0.57858788538782
C           83.40258205895333       -2.48693095674249        0.41156226858041
N           81.36250226557722       -1.42500261971211        0.31198103484897
C           82.69507334118508       -1.23243707223329        0.24726775014900
C           83.35704486061026       -0.00324326993920        0.05113899821755
C           82.73428174651733        1.24126561999970       -0.16745763871253
C           83.38715000958359        2.48680437423674       -0.35490667971451
C           82.42606548659563        3.43877697177943       -0.55987111711316
C           81.15776691541802        2.79893321823820       -0.50970453491583
N           81.39466921545502        1.47366155998638       -0.26010663955357
C           79.90073069653670        3.39731355191004       -0.66048987309463
C           79.89694258471742        4.84841782948639       -0.96549274759633
C           79.30820048838437        5.76978876853069       -0.10018147729979
C           79.33370341088209        7.11619036996818       -0.42775546299753
N           79.89402023638429        7.58073360227715       -1.53993606380610
C           80.45513525538998        6.70905653635441       -2.37151104481351
C           80.48450314116458        5.34476860075048       -2.12864454621707
C           78.67126105519633        2.74667742208247       -0.54780186286375
C           77.38912188689447        3.39573928002164       -0.75631884601039
C           76.44584690934761        2.45320753100366       -0.55197266753510
C           77.15336335240286        1.22918698298590       -0.23194861401732
N           78.48604116420948        1.43174509491904       -0.24590052281308
H           75.39352500770717       -2.56382183669689        0.69108728112894
H           77.26915451440621       -4.43863917784772        1.03127348837560
H           79.17732214888672       -0.77763736341243        0.14746990016595
H           80.99838569596739       -4.73112160064005        2.81534507107602
H           80.96303046403324       -7.19140638969655        3.17857513452308
H           78.94584178662976       -7.83289042394326       -0.34428339887989
H           78.90518337816502       -5.40292045082167       -0.86882814056582
H           82.59697458397996       -4.49756117645556        0.71097642399917
H           84.47471405136812       -2.59894988937674        0.38846839625576
H           84.45553312683748        2.62827728161341       -0.33045447050726
H           82.57998719954371        4.49304084107986       -0.72183654841467
H           80.67150873144006        0.76984779643902       -0.15571382990479
H           78.85092688230796        5.43764092573166        0.82414855478666
H           78.88553829429007        7.85309324855676        0.23225615006815
H           80.90184163170252        7.11845876237087       -3.27285501642407
H           80.94270472887402        4.67016493459404       -2.84213540691402
H           77.25128750137961        4.42819560642247       -1.03340851299497
H           75.37365358124735        2.54847838484545       -0.61432523812232
C           92.52925355882152        0.02929032745130        0.03002359772001
C           93.16681622249118       -1.19914702576250        0.29197205430317
C           92.52914026359313       -2.42780450036595        0.60316235739730
C           93.50091620768377       -3.37752693224065        0.76275090588236
C           94.76078997382757       -2.75625409489006        0.54497887969326
N           94.50835861650488       -1.43774268098765        0.27494891672350
C           96.02438301080160       -3.35591521829328        0.60888979963464
C           96.04847596236073       -4.81287984506543        0.88265542594129
C           96.67188258401994       -5.32504379131969        2.02003879769978
C           96.66532792634901       -6.69400581754195        2.23583752027147
N           96.09169340191065       -7.55600095153128        1.40241877161624
C           95.49769634242074       -7.07659306984920        0.31449230520133
C           95.44729516834138       -5.72418741284763        0.01510896736416
C           97.24479895339721       -2.69961250882209        0.44043106480238
C           98.53339652646147       -3.36877688062206        0.46115136038685
C           99.46493138409808       -2.40980110125711        0.28117200476962
N           97.41380481499178       -1.36574549631049        0.22660128545661
C           98.74369628861618       -1.16035646798720        0.13980087494920
C           99.39102007525446        0.07772314638330       -0.04654402943915
C           98.75437738032323        1.31867712111227       -0.24246573525744
C           99.39329227322348        2.57267632233372       -0.42130225498358
C           98.42111286878884        3.51745608731291       -0.60660083973369
C           97.15973664648781        2.86445337071971       -0.55274433685158
N           97.41169827258827        1.53893160984231       -0.32076874214624
C           95.89531562804312        3.45126253417530       -0.68700289130492
C           95.87324516301197        4.90569436820931       -0.97493963988185
C           95.28227456557818        5.80996475000772       -0.09321302383049
C           95.29085730340185        7.16053209195522       -0.40398472884005
N           95.83614670115978        7.64476028832417       -1.51526891328426
C           96.39869637467913        6.78942472235264       -2.36266419500258
C           96.44503474559438        5.42263299300602       -2.13693540847800
C           94.67419164282997        2.78592192440371       -0.57161655581851
C           93.38348974279033        3.42189971258030       -0.76675228982955
C           92.45237187672600        2.46727220984518       -0.56293031656986
C           93.17583931410144        1.24935362982052       -0.25505621904028
N           94.50586855005277        1.46676175471427       -0.27760935171817
H           91.46312922935209       -2.55829260620706        0.69622071496453
H           93.35970256838955       -4.41498218522373        1.01801165454930
H           95.22297998971399       -0.74112694087882        0.09256924953283
H           97.14145788820609       -4.65864517302898        2.73365156548232
H           97.14061419804381       -7.11582588104010        3.11656917443305
H           95.04107824579162       -7.80555983950270       -0.34859294655345
H           94.96258752408782       -5.38061640844103       -0.89104497155700
H           98.68271827347012       -4.42915608656770        0.58379406751096
H          100.53727185534640       -2.51250353329144        0.23595539021184
H          100.46046624981335        2.72424536722279       -0.40540284322659
H           98.56306514876127        4.57500607563871       -0.75779021003262
H           96.69629840129967        0.82696861468108       -0.21802713054455
H           94.83646487132030        5.46144833603317        0.83069493814504
H           94.84118849375942        7.88442787803752        0.26927749329990
H           96.83256303831877        7.21458680536679       -3.26298796122061
H           96.90417229088482        4.76196889462066       -2.86275845846854
H           93.23219847972550        4.45465474976597       -1.03564921409720
H           91.37880399468554        2.55111978985267       -0.61748047561485
