262
 energy: -480.049363342656 gnorm: 0.000297826448 xtb: 6.5.1 (b24c23e)
Co          40.45134472815182        0.00416429118440       -0.06956471092008
C           37.08260906111920        0.07498593276621       -0.24851731190063
C           37.76753067619606        1.26858912767883       -0.31932151393185
C           37.12857827743350        2.54275446926839       -0.45057873567956
C           38.08683028086862        3.47870474969126       -0.25796919304099
C           39.31412866230132        2.77480852382908       -0.02459455274969
N           39.11504545318831        1.42058727624065       -0.10674512028499
C           40.49394334470527        3.38106734971176        0.38632989799104
C           40.51057268688756        4.84649278539497        0.60479607418380
C           40.70836875061224        5.36544783412352        1.88723240684570
C           40.72236447196966        6.73202092006183        2.09073655525557
C           40.54438172528133        7.60924975595069        1.01587538497009
C           40.56656079411729        9.06351227642656        1.25845756073524
O           40.73126688508913        9.55830757338943        2.34396697670823
C           40.35006262348165        7.09052085058231       -0.26644033096941
C           40.33119080367003        5.72182816614549       -0.46905697219537
C           41.66161656726394        2.66147995316781        0.58613722251497
C           42.91357326688931        3.25608017419939        0.94815813089613
C           43.85742935047076        2.29505057539620        0.80887936322288
N           41.83445927414877        1.33098749629003        0.27608064196365
C           43.18044443761950        1.11703537456346        0.36718123296471
C           43.84427679914517       -0.04741865826323       -0.02881231936849
C           43.15140486429945       -1.20305450896532       -0.39768589108493
C           43.79717108057962       -2.41245030851315       -0.79950080391998
C           42.83182206513374       -3.35944836342410       -0.87939315516815
C           41.59916400969058       -2.72323900052110       -0.52382291768518
N           41.80096326675801       -1.38307020549381       -0.28764311021854
C           40.39511818593328       -3.39329221522533       -0.36418235343253
C           40.37493347061923       -4.86767160755596       -0.48486006439720
C           39.58746988304851       -5.48680025241311       -1.45971043529259
C           39.57119414492620       -6.86526178128628       -1.57588923570068
C           40.33826013533081       -7.65314931166098       -0.71435789737121
C           40.33495218197259       -9.12424931968900       -0.81476153264774
O           40.97606955709405       -9.84541630028025       -0.09423830721815
C           41.12525707799726       -7.03396840619525        0.26234948512931
C           41.14641130143253       -5.65713440546566        0.37347033513488
C           39.20739073689431       -2.71809667013745       -0.11530438314321
C           37.93848428176018       -3.36047045778342        0.06793977249414
C           37.00301050504317       -2.38215925407017        0.07723469475826
C           37.70321286521485       -1.14352219938745       -0.07692106881678
N           39.05783437565980       -1.35498793466171       -0.13408525843068
H           36.00099500947871        0.09792872066128       -0.30936607717799
H           36.07617261122019        2.68148703196109       -0.64017723917004
H           37.98160474020006        4.55139794290096       -0.25259254980980
H           40.83637804002683        4.68703972866274        2.72306574202197
H           40.86997069516820        7.14422258356641        3.08316492504427
H           40.41705176027222        9.68004709610212        0.34648410998836
H           40.21543395290226        7.76440005206772       -1.10629435658772
H           40.19278197721826        5.32157125577678       -1.46705656263086
H           43.04544725154307        4.28426883045191        1.24288219390962
H           44.92059093946023        2.36463644923474        0.97304935099682
H           44.85527755262275       -2.50985239325181       -0.98128932233446
H           42.93302154867318       -4.39622731275618       -1.15584063611406
H           39.00139912730559       -4.87747380763127       -2.13846933844853
H           38.96192426648902       -7.33735210636976       -2.33978081750914
H           39.68378134672094       -9.52460650103943       -1.62088505723974
H           41.71541375528503       -7.65399529046979        0.92859780221685
H           41.74879519087106       -5.18028714274898        1.13838032781435
H           37.79588471364200       -4.42398801996644        0.17026874846593
H           35.93299802918544       -2.47049099621710        0.17742821272715
Co          96.00877967089627       -0.02567390702855       -0.11045092990233
C           99.37949078239863       -0.07245878771836       -0.27770451661288
C           98.69584174074781       -1.24609434612877       -0.50893696365098
C           99.33851940939381       -2.49192470662262       -0.79852350063111
C           98.38112450598516       -3.44606450781575       -0.73465834447956
C           97.14990293551881       -2.77930000750188       -0.42542150987179
N           97.34702649268708       -1.42566090244630       -0.32786851654052
C           95.96398347760083       -3.43453358122675       -0.12240437689725
C           95.94632305525771       -4.91603227900197       -0.10080405331230
C           95.71952152599756       -5.60004236788317        1.09662119468924
C           95.70581190179804       -6.98152389377439        1.11753667656688
C           95.91304214507652       -7.70901520170827       -0.05907306712756
C           95.89148637130187       -9.18250995834363       -0.01133470732557
O           95.70266296190293       -9.81685334568014        0.99481634006024
C           96.13547341532444       -7.02528390912359       -1.25668092754829
C           96.15383396426641       -5.64182713208809       -1.27630014461031
C           94.78927187397134       -2.74784612009516        0.14175458188925
C           93.52968824580199       -3.38731698990902        0.37930143842803
C           92.58637933814678       -2.41635863485461        0.34753208776461
N           94.62056657968384       -1.38700791551169        0.01655682828341
C           93.27138512198489       -1.18753992484776        0.09900027400068
C           92.61480591915070        0.02451438887733       -0.12813465666578
C           93.31249590736701        1.22288116900892       -0.29240413192791
C           92.67124130200919        2.48196178254120       -0.50353333594687
C           93.63606391747908        3.42846762228609       -0.41384594665364
C           94.86444588572628        2.74192761362485       -0.14913116167906
N           94.66119125864535        1.38163548577736       -0.13284636948551
C           96.06742050716208        3.37797235917201        0.12051014454623
C           96.08726175703120        4.85341196682315        0.23027812381922
C           96.87274934491565        5.61659266884060       -0.63820751717749
C           96.88861333674363        6.99638801957262       -0.53919445841862
C           96.12289091987779        7.64074701989561        0.43541836282231
C           96.12605501452738        9.10957820076149        0.56429457279067
O           95.48621715148579        9.71033809298753        1.38890477977258
C           95.33743443936891        6.87722058316776        1.30537323510637
C           95.31672088633955        5.49977404009789        1.20160955661805
C           97.25440697671111        2.67230065659699        0.26283761540473
C           98.52386114192450        3.27988300588998        0.53813620298097
C           99.45917128778714        2.31179904705127        0.39690145193929
C           98.75828800878614        1.10984392234018        0.06187931206152
N           97.40366349501097        1.32719518685477        0.03874108759783
H          100.46123221478933       -0.08657828245373       -0.33879123501156
H          100.39276298626376       -2.60379972305426       -0.99553881327458
H           98.48902808071306       -4.51044977069090       -0.86578036971113
H           95.56863893339771       -5.03802412156189        2.01129203522388
H           95.53605751809417       -7.52130553967033        2.04297364034395
H           96.06576683052253       -9.67285769801565       -0.99286861326186
H           96.29246082235623       -7.58224023121917       -2.17470092819916
H           96.31390396801719       -5.11323782321674       -2.20921893582938
H           93.39361924731308       -4.44679046493661        0.52226423201696
H           91.51910712957545       -2.50825396501652        0.46834693586062
H           91.61587452010581        2.60837991287755       -0.68337273749756
H           93.53751055490663        4.49645489645261       -0.51999124279041
H           97.45767095472704        5.12018745973927       -1.40431874964565
H           97.49644802332401        7.58153166990538       -1.22166665348817
H           96.77606119758040        9.63012469013643       -0.17104010441188
H           94.74808017475902        7.38618126219431        2.06050589981283
H           94.71516466100776        4.90975109882964        1.88376758191014
H           98.66687875753111        4.31584478582304        0.79926181232951
H          100.52944466119826        2.38413776872103        0.50672557417075
C           45.24620673306366       -0.05935581527652       -0.03824251453616
C           46.47142193025389       -0.06365571163571       -0.04242536000277
C           47.81236948392024       -0.06596020170343       -0.04502823981665
C           49.04413310692728       -0.06251322356844       -0.04595317026486
C           50.38001648062860       -0.05789844190373       -0.04318928517174
C           51.61191628438433       -0.05299572420658       -0.03823631900028
C           52.95234624114231       -0.04729327743689       -0.03242186373310
C           54.17803880407319       -0.04231247013173       -0.02452058584880
C           63.76296528641633       -0.02385165316513       -0.07637510736561
C           64.98876886143208       -0.01877028008980       -0.08718257113308
C           66.32904405498122       -0.01423215466942       -0.09461587525736
C           67.56121091678310       -0.01083972508100       -0.09724166292496
C           68.89676035020797       -0.00732691116578       -0.09555885978924
C           70.12889500978964       -0.00482089334630       -0.09035131746894
C           71.46921302447180       -0.00423216206919       -0.08085514914900
C           72.69497068322474       -0.00410006405494       -0.06846066304115
C           82.28041079889925        0.02585042480451       -0.15625852591766
C           83.50544199424540        0.03673877047872       -0.18074722470989
C           84.84652776102841        0.04605701182269       -0.20007627463394
C           86.07797061498368        0.05126739462505       -0.20950869750302
C           87.41469066372321        0.05420391584328       -0.21058200961368
C           88.64597985045302        0.05448534851731       -0.20343503815930
C           89.98766970786879        0.04844390080587       -0.18656521596014
C           91.21225652945584        0.04051823342015       -0.16313414692057
Co          58.97068708099199       -0.03865790765162       -0.02863300213367
C           55.57830858900388       -0.04202840039039       -0.01709362610220
C           56.26145648847523        1.17696080023483        0.04638415363850
C           55.61437649154315        2.44976146851746        0.07009591276003
C           56.56906977072664        3.36460728851319        0.37020086918193
C           57.79366629239230        2.64236826143200        0.53616585470734
N           57.60326559378757        1.30797889043634        0.26675424939368
C           58.97057239915976        3.19162499967065        1.02892865420374
C           58.96670947751789        4.59633807870412        1.49057870248648
C           59.83138034647529        5.53392147098444        0.91722348490010
C           59.82385298520831        6.84567876003429        1.35041799958665
C           58.95645268919163        7.24919386303613        2.37084399903375
C           58.97219106977236        8.65427349054277        2.81912162085697
O           59.69869317571055        9.49532596694896        2.35578100855752
C           58.09315053559813        6.31328578478087        2.94530842764839
C           58.09628024210807        5.00124683268593        2.50669041898439
C           60.15000072305859        2.46237758650474        1.09515285779157
C           61.38173213854798        2.96005475788354        1.62906759728318
C           62.33872067678531        2.05436401866691        1.31062475360987
N           60.33919987848307        1.22221828300479        0.53071729705751
C           61.68516444259426        1.00189734932666        0.59986484423292
C           62.36287248443040       -0.03035687417458       -0.05765942792266
C           61.67602537480159       -1.07347737750457       -0.68785987986497
C           62.31868491440248       -2.13158184696636       -1.39996270924319
C           61.36337663153071       -3.05612487101974       -1.66604156895153
C           60.14309876401943       -2.56043216168837       -1.10540297089017
N           60.33618457710672       -1.30978458687184       -0.56775393370882
C           58.96974563415187       -3.29574343079341       -1.00027708368930
C           58.96943500062145       -4.71127807091415       -1.42771561466213
C           59.84747172277920       -5.62614787772390       -0.83958122388857
C           59.84550266922764       -6.95218251066171       -1.23410417856714
C           58.96963420811003       -7.38838441886181       -2.23095986296543
C           58.94890794002514       -8.79591485062701       -2.67156989231340
O           58.21382562071157       -9.21733349493999       -3.52702283761409
C           58.09434857580329       -6.47214792158468       -2.82327172643176
C           58.09167426100714       -5.14963556552847       -2.42417597318012
C           57.79505122572288       -2.73875913331221       -0.51238747248007
C           56.56879695486286       -3.45693599450552       -0.33885750666303
C           55.61193241165973       -2.53495969338952       -0.07039974775964
C           56.26035422248865       -1.26248094242727       -0.06565518933482
N           57.60435044839615       -1.39903079987902       -0.26699497127005
H           54.56310402859992        2.60586126009776       -0.11050785571335
H           56.46358859861390        4.43239103355650        0.47196931714196
H           60.49534186715236        5.22742532478290        0.11690714525752
H           60.48716625274144        7.58051244797745        0.90698047011015
H           58.24990015613358        8.88176677304631        3.63179973475136
H           57.41919122758997        6.61723062593056        3.73960834094127
H           57.43434106612123        4.27397550517610        2.96314812783164
H           61.49079449739873        3.88516074824133        2.17110779962299
H           63.39495204370100        2.08558389596035        1.52400643665007
H           63.36754810632705       -2.15430476183274       -1.64801406651348
H           61.46576885439277       -3.99109215755160       -2.19234388504730
H           60.51935736408763       -5.29298347353096       -0.05663002605741
H           60.52544789266138       -7.65718235777018       -0.76702323139236
H           59.67593239035676       -9.44957627667108       -2.14429646245447
H           57.42098325909648       -6.81905821240085       -3.59969591237103
H           57.42116286080147       -4.43916977573378       -2.89423059098653
H           56.46298476309363       -4.52647919548671       -0.41876164837814
H           54.55876918991050       -2.68631416099399        0.10289683591201
Co          77.48771820503809       -0.00632470701235       -0.05493836717363
C           74.09523055170128       -0.00619970961457       -0.05265811843099
C           74.77927982094316        1.21058860215541        0.03569778582456
C           74.13205921335083        2.48296451868302        0.08172943225073
C           75.08640368120419        3.39218337873332        0.39859636509564
C           76.31152901817133        2.66751985532568        0.55069791153211
N           76.12086614510581        1.33745913790871        0.25932138432841
C           77.49040029729426        3.21081265824098        1.04385989331543
C           77.48994296739080        4.61123409883922        1.51868644244341
C           78.34791793149138        5.55399714802657        0.94369282063929
C           78.34220161948357        6.86289667831860        1.38534141465463
C           77.48344618076001        7.25824460046486        2.41620199022363
C           77.49907436031667        8.66115528876814        2.87145093202340
O           78.21701911733165        9.50721107404648        2.40403401995315
C           76.62774478278055        6.31691485092703        2.99311209319711
C           76.62882434810953        5.00770502322423        2.54587591927453
C           78.67184906457196        2.48263913495076        1.09011228130468
C           79.90773531482498        2.97760336658082        1.61668058097064
C           80.86442565502931        2.08061600309759        1.27365430165324
N           78.85848810608263        1.25106867913460        0.50712117713171
C           80.20650620688035        1.03515228932671        0.55686198121251
C           80.87971622146479        0.01280227001459       -0.11945070571225
C           80.18969026829556       -1.03070382571434       -0.74406068386936
C           80.82889524818368       -2.08900089373365       -1.45878522862562
C           79.87560489826923       -3.02074466141655       -1.70656101325728
C           78.65934052044919       -2.52722682002265       -1.13581167769130
N           78.85183822890414       -1.27342261843291       -0.60718385862182
C           77.48795398367891       -3.26552843755039       -1.02192835130031
C           77.49468365666206       -4.68537572030363       -1.43486391114795
C           78.37742074085158       -5.58802607409911       -0.83478220791972
C           78.38325921757372       -6.91882959780871       -1.21254621202078
C           77.51054090094128       -7.37239465666137       -2.20448026833658
C           77.49689338193207       -8.78571884065232       -2.62584457048627
O           76.76329281579062       -9.22294261835046       -3.47474168688113
C           76.63160192834152       -6.46819795779818       -2.80978687669704
C           76.62141093150449       -5.14069163426863       -2.42757804531914
C           76.31186032213873       -2.70686017418764       -0.54145174580535
C           75.08289320513957       -3.42286136628080       -0.37667951647101
C           74.12479852057918       -2.49875168400584       -0.12101721357878
C           74.77544245624821       -1.22730635817941       -0.11076241146079
N           76.12058532861930       -1.36575178957185       -0.30029428925420
H           73.08081211406828        2.64214629555652       -0.09630268852704
H           74.98066641005131        4.45789906953119        0.51987766095925
H           79.00482214278280        5.25383284390363        0.13519632298865
H           78.99990415987662        7.60179558112926        0.94031594158145
H           76.78569839050503        8.88169578386581        3.69382450060867
H           75.96081129279189        6.61452250956693        3.79570530088048
H           75.97230828246865        4.27634896606510        3.00364986645823
H           80.01950440123942        3.89535876759660        2.17051279850346
H           81.92299252729926        2.11299792403006        1.47485893083646
H           81.87483618899816       -2.10773793974192       -1.71919546548729
H           79.97653479331872       -3.95860900244848       -2.22798909929607
H           79.04699977298378       -5.24110744126106       -0.05583567057719
H           79.06662573553220       -7.61415720042507       -0.73604618237601
H           78.22776281411784       -9.42828372336418       -2.09025136135584
H           75.96138155993877       -6.82842020849880       -3.58286960834607
H           75.94842306961175       -4.43973474505400       -2.90824722326110
H           74.97613965375108       -4.49247423930267       -0.45442362456614
H           73.06979737878353       -2.64815926017318        0.04265560058557
