310
 energy: -554.640139323012 gnorm: 0.000696166565 xtb: 6.5.1 (b24c23e)
Ni          39.07187299770656        0.11763125407883       -0.09591719703081
C           35.69220024957230        0.37637564474731       -0.32193889470809
C           36.33921061985435        1.15885371763481        0.61155639921496
C           35.65694400885263        2.04774697461345        1.50231650074639
C           36.60418427808452        2.61262989155730        2.28646979210363
C           37.86595144009585        2.08331257661680        1.86026969046652
N           37.69222386222922        1.18363132114934        0.83839382351419
C           39.08314887322518        2.45766667081290        2.41053163528411
C           40.29674550316113        1.96378300903633        1.95799959408162
C           41.56315558902725        2.40934446098094        2.45434072541106
C           42.51345780167109        1.74818992708523        1.75208871658776
N           40.47070624163646        1.03173552450834        0.95929218645860
C           41.82527573374188        0.89390861035820        0.83639987165679
C           42.48668372633725        0.02052721031400       -0.03118661142751
C           41.80863205869392       -0.85669337550318       -0.88198924904430
C           42.47893087005254       -1.81366049683721       -1.70469217205610
C           41.51592399825071       -2.50209657191740       -2.36185573962895
C           40.26032398926211       -1.94979276965523       -1.95308939720199
C           39.03850303278676       -2.37599362379608       -2.44948075909984
C           39.02073510719286       -3.47192713737877       -3.45826754456673
C           39.48833781205735       -3.24530326318902       -4.75945809234275
O           39.93499279858234       -1.98823809298654       -5.01865711593170
C           40.43951185108099       -1.65626860487623       -6.29649912137305
C           39.46956872118684       -4.27154653896796       -5.70342893857501
C           38.98714092529899       -5.52002186102956       -5.34079550419449
C           38.51961442507270       -5.76733927306137       -4.05894499361403
C           38.53342988436541       -4.73990389374784       -3.11600996221491
O           38.10110975847244       -4.88316119722924       -1.83556179023444
C           37.60797421192418       -6.12758391105196       -1.38192862012081
C           37.83171285276401       -1.80606940211209       -2.07011459249148
C           36.56794123805449       -2.17584915465984       -2.63587465548700
C           35.63345602696133       -1.38552812286613       -2.05837234207840
C           36.32644018508890       -0.54035524778462       -1.13396760351670
N           37.67404893944565       -0.79885597294566       -1.15167434410508
N           40.45273918255891       -0.94477644275277       -1.03098975033304
C           39.09318294108562        3.45777625603199        3.51449546752754
C           39.42280570056791        3.06650719377426        4.81873742023598
O           39.70663916799078        1.74850941981381        4.98832478163602
C           40.06828755321482        1.25216544605478        6.26139776501688
C           39.43775688209914        4.00255306056424        5.85240667518135
C           39.12996167483813        5.32599390914785        5.57559581495755
C           38.80497763765789        5.73683119230781        4.29162734731236
C           38.78446845332400        4.80014831142171        3.25873634679284
O           38.48537813634538        5.10467345774690        1.96825925294014
C           38.18285063087009        6.43465512980191        1.59801946234175
H           34.61529272478744        0.46879992219367       -0.40406598018566
H           34.58883568793219        2.19747074611059        1.51599223962806
H           36.47657422291795        3.32933490442576        3.08139922806784
H           41.69461152855588        3.14126263894078        3.23450696643739
H           43.58609547745692        1.81703731128020        1.83664326345591
H           43.54901697732019       -1.93619356941353       -1.75308865563969
H           41.63259325376043       -3.30908513996586       -3.06654560162081
H           39.67472089163549       -1.77436559358218       -7.07371038916859
H           40.73647621369945       -0.60728250247525       -6.24234975573074
H           41.31459119640916       -2.26548310877061       -6.55335450062362
H           39.82539748509353       -4.10654641863175       -6.71158704496786
H           38.97474619894938       -6.31862955926312       -6.07440994517900
H           38.14960948214254       -6.75142413254479       -3.80422215867748
H           37.33484560093359       -5.98262715237602       -0.33509241041357
H           36.71995627434050       -6.43784808869734       -1.94600966444218
H           38.37240867565876       -6.91114296507604       -1.44961241456221
H           36.43105600063641       -2.93999774857938       -3.38380685234171
H           34.56796135859604       -1.36398715111691       -2.22488106711571
H           40.25551857174775        0.18496980303531        6.12917481209379
H           39.26020889688190        1.38847584023707        6.99039460800265
H           40.97957536345299        1.73397681311402        6.63597860913875
H           39.68669413936371        3.71059872396812        6.86385307128340
H           39.14431657659887        6.05431456829455        6.37900038361863
H           38.57192828645660        6.77648384574031        4.10449630941606
H           39.02443582348103        7.10856291864670        1.79910685586984
H           37.98866543167087        6.41409382319843        0.52405208276711
H           37.29052964823833        6.80384491809375        2.11807039010643
Ni          94.80784900936526        0.04335000537127       -0.11623924059186
C           98.18882209064633        0.31394264031826       -0.31972788930345
C           97.54973152930202       -0.50186779388721       -1.22982542311857
C           98.23984044591884       -1.25469860501003       -2.23285264660925
C           97.29614667550437       -1.93490599797032       -2.92425840420365
C           96.02942574261469       -1.58372234866353       -2.35337034362463
N           96.19616668338087       -0.71404143099752       -1.30474717400920
C           94.81440725676056       -2.05572456186904       -2.82796757324799
C           93.59693798925824       -1.68483693150595       -2.27892724458096
C           92.33396203309277       -2.10058011462203       -2.80851467484956
C           91.37891935324977       -1.52937031390420       -2.03710745613743
N           93.41626306157421       -0.86096066369050       -1.19026194238032
C           92.06094428307901       -0.77313293802819       -1.03475212270566
C           91.39381447768356       -0.08359090180044       -0.01847566893953
C           92.06669444737800        0.61606315507212        0.98724794070074
C           91.39225741306269        1.26008979355218        2.06988248589117
C           92.34963334557392        1.83225105112784        2.83760660487028
C           93.60550221335333        1.54915782412186        2.21214617716706
C           94.82024522150306        2.01585613044312        2.68913605608745
C           94.82690515670890        2.86580253759998        3.91240869765690
C           94.31988478552563        4.17134102434211        3.86957364167287
O           93.84781362700836        4.58496166803763        2.66428814272726
C           93.30397179275855        5.88082349614267        2.51389786555881
C           94.32770719738868        4.96796367782382        5.01409300610483
C           94.83842579660693        4.45415725780145        6.19649166814104
C           95.34480697545693        3.16492674400241        6.26254682631648
C           95.34194053969088        2.36961341805026        5.11695146191929
O           95.81130058070367        1.09466394573697        5.08079472052891
C           96.33609086495872        0.49215375881899        6.24658226926679
C           96.02874665859950        1.74624086213458        2.06314533127241
C           97.28562439989553        2.27557823952281        2.50350368436144
C           98.22715764538562        1.81268908858153        1.64875754215482
C           97.54471311031683        0.99779571092668        0.68995463617380
N           96.19639177064984        0.97016430735228        0.94396003215211
N           93.41991650494246        0.78406672861632        1.08184143116846
C           94.81260766402775       -2.98195968648493       -3.99465903189662
C           94.47701914809527       -4.33148635413844       -3.82432531303465
O           94.17948779647351       -4.71250755968070       -2.55443413795127
C           93.81564437667554       -6.04941758671049       -2.27466436817101
C           94.47024345983681       -5.19879010647892       -4.91638585575957
C           94.79258022369507       -4.71107278278288       -6.17381451071081
C           95.12438132506122       -3.37848428271927       -6.36662017301697
C           95.13664613423560       -2.51203703878028       -5.27400750278510
O           95.44191696165902       -1.19035931932587       -5.36086955397429
C           95.75557196915931       -0.60867591049811       -6.61009097423445
H           99.26634329087072        0.40843887589200       -0.39069591294695
H           99.30992162769468       -1.25399865326375       -2.36847843713838
H           97.42909203218089       -2.61211265370385       -3.75229014046365
H           92.20796504390998       -2.74261154921206       -3.66500804455591
H           90.30686704127262       -1.60671784871050       -2.12166158637916
H           90.32358274627853        1.25863157805326        2.21260827676832
H           92.22898879730025        2.40144445421762        3.74478027022514
H           94.04919061511893        6.65669196417556        2.72740942247973
H           92.99285531496079        5.96009205457442        1.47062608137695
H           92.43154162322827        6.02784902293276        3.16204481059980
H           93.94168141071945        5.97824902691646        4.99123054973446
H           94.84235269733340        5.07303581532619        7.08704471572003
H           95.73616201685333        2.79041498047869        7.19891877477338
H           96.63553485503445       -0.51716125730862        5.95829623683575
H           97.21305092648912        1.03506969334570        6.61969592922584
H           95.58247373442956        0.43122422790041        7.04108961804542
H           97.41393529918375        2.92060885369557        3.35761931284954
H           99.29091752697440        1.99121138640510        1.65150459582269
H           93.62026407014707       -6.09261159994808       -1.20163004394902
H           94.62565824081450       -6.74648189117985       -2.52163438456677
H           92.90845019987074       -6.34058723034935       -2.81791038384216
H           94.21645681615179       -6.24343330578483       -4.79567696229986
H           94.78457630807925       -5.38503366611738       -7.02341580170513
H           95.36925297799787       -3.02541916146529       -7.35940138051741
H           94.91935496495505       -0.69545499753645       -7.31438848545387
H           95.95033131304901        0.44717710671849       -6.41306602423536
H           96.65047362992060       -1.06330927898908       -7.05216621601161
C           43.89159313312307        0.00293695563880       -0.02699722577014
C           45.11572816853022       -0.00811027139014       -0.02721305760425
C           46.45910460803321       -0.01864548021070       -0.02551427811832
C           47.68932937994670       -0.02776422257461       -0.02680193854688
C           49.02793687930303       -0.03384097100000       -0.02529038976076
C           50.25837727060041       -0.03819110576464       -0.02561409266982
C           51.60164831117492       -0.03872820091943       -0.02564372120407
C           52.82594436977446       -0.03645168008452       -0.02728674206095
C           62.47583138360842       -0.06376831534411       -0.04821293529863
C           63.70042313175492       -0.07120528802579       -0.04936127758141
C           65.04312741986767       -0.07744878330368       -0.04919228249878
C           66.27384709043706       -0.07771486589564       -0.04896663727519
C           67.61184546445703       -0.07523271956983       -0.04480366642035
C           68.84254027572490       -0.07153935003984       -0.04003644717441
C           70.18523229528522       -0.06441002113973       -0.03422112076747
C           71.40991406051967       -0.05618692445190       -0.02727996464889
C           81.05564729722681       -0.11449534232460        0.02621052187848
C           82.28001855713481       -0.13018593505479        0.03438819906112
C           83.62294547820284       -0.14072122511888        0.03927778402980
C           84.85350797676956       -0.14321783453460        0.04079254477367
C           86.19182717460541       -0.14090001165982        0.03673843827400
C           87.42234095210848       -0.13363777963000        0.02863735135081
C           88.76539287911309       -0.12247174561274        0.01785444759811
C           89.98958085403822       -0.10960814196115        0.00359740412517
Ni          57.65118264556794       -0.02193334900899       -0.03741228191742
C           54.23031098877335       -0.03093133463394       -0.02986026814321
C           54.90495389263245       -0.14809246680821        1.18883439657685
C           54.23272888723760       -0.29369680040802        2.44092868805323
C           55.19069360845857       -0.28386827374499        3.39856029433172
C           56.44430011161513       -0.12914026925405        2.72696630928667
N           56.25876377187303       -0.07449539250801        1.36403573339984
C           57.65875248309872       -0.01109633548181        3.38564196913247
C           58.87103036059749        0.09339427154218        2.72119173238718
C           60.12933405923508        0.23844033984709        3.38613105607413
C           61.08360156941774        0.22214632917204        2.42490559261192
N           59.05049908351534        0.02268215174828        1.35787524716228
C           60.40422291436523        0.07573922175838        1.17682645328494
C           61.07213460863615       -0.05056256837124       -0.04508267388025
C           60.39637448657376       -0.15637381502069       -1.26452055272011
C           61.06771289018454       -0.29858339312441       -2.51741765769494
C           60.10994831420610       -0.27623026960739       -3.47504492423755
C           58.85734561705586       -0.11697104989176       -2.80265611813109
C           57.64378266115359        0.01372854543426       -3.46045469138484
C           57.64158967293865        0.03306862812125       -4.94955424919675
C           57.11639282053600       -1.04743160501099       -5.67067386591616
O           56.63515197680694       -2.07822135472668       -4.92774035937770
C           56.08128450951261       -3.21704796570984       -5.55547795150329
C           57.11794274400727       -1.03053756356334       -7.06506141048922
C           57.63935706460390        0.06830422549722       -7.73109402674287
C           58.16179266957108        1.14991675634205       -7.03824694881501
C           58.16575942689293        1.13147531104387       -5.64383413458179
O           58.64851251157385        2.14297974814407       -4.87591580870049
C           59.19952819512569        3.29814174896841       -5.47584729224043
C           56.43214221109663        0.12140837102033       -2.79490201439613
C           55.17464521494173        0.27907237297324       -3.45853845927066
C           54.22027134944594        0.25997697301988       -2.49752382103952
C           54.89882231111431        0.09996588044937       -1.25063758392787
N           56.25240806363126        0.04117500690155       -1.43227561863070
N           59.04326842398633       -0.07255907770337       -1.43924953767550
C           57.66041941035085        0.00111687161356        4.87492232478102
C           58.16968879336549       -1.08935218156866        5.59224646915706
O           58.63632445406417       -2.12435326679540        4.84591874641447
C           59.16852540090711       -3.27534663866314        5.47031960976174
C           58.16797729194733       -1.07702325518101        6.98674306816196
C           57.66240378227035        0.02703337832544        7.65633128105504
C           57.15545929025249        1.11832349698870        6.96709431578378
C           57.15161223434742        1.10449106993109        5.57265707650623
O           56.68335198430459        2.12494105843150        4.80757801022976
C           56.14874573728743        3.28608523507969        5.41066335828201
H           53.16459191594227       -0.38596908485259        2.55500636346283
H           55.07183099372786       -0.36951225179304        4.46637226133955
H           60.25380555418197        0.33357486608317        4.45246291343567
H           62.15344394409399        0.29947730449325        2.53395733688805
H           62.13520505342630       -0.39744584227690       -2.63196542027235
H           60.22845378885445       -0.35594254279081       -4.54332557063978
H           55.20861858529690       -2.95460880525479       -6.16572314894943
H           55.76824392924710       -3.88480610135442       -4.75074932838455
H           56.82098523836554       -3.72996174358467       -6.18203015550482
H           56.71878562802969       -1.86105478049182       -7.63171250495568
H           57.63859092344892        0.08200258864626       -8.81548048244063
H           58.56012779923039        1.99446449321257       -7.58437028781109
H           59.51512481064963        3.94497579107833       -4.65520585865907
H           58.45722523972409        3.82665658147213       -6.08617482915526
H           60.07009585216242        3.05226637246081       -6.09589088689232
H           55.05056593171198        0.38378494101949       -4.52400557308147
H           53.15087460911813        0.34394930851544       -2.60600360407178
H           58.41811260591582       -3.77784754819018        6.09258691248038
H           59.47219162706623       -3.94510688394886        4.66367647163476
H           60.04384573630735       -3.03084451373756        6.08419312627932
H           58.55509000887437       -1.91498959336896        7.55078796374564
H           57.66349512410565        0.03722094495145        8.74076104401964
H           56.76905514535997        1.96663610926043        7.51594325913249
H           56.89764821080326        3.80093737915418        6.02457898580405
H           55.27317181274040        3.05114196106713        6.02789941816427
H           55.84487326018793        3.94073442441666        4.59178132886931
Ni          76.23295380203980       -0.03487388517544        0.00007923319459
C           72.81349597313921       -0.04454457285500       -0.01887669617469
C           73.47967123969786       -0.17075437258465        1.20405362082012
C           72.79973321073373       -0.32556751078345        2.45083606398090
C           73.75014797907767       -0.30432568577887        3.41596059928783
C           75.00702856945958       -0.13478351819372        2.75421880088631
N           74.83114138511620       -0.08429300127945        1.38977018615581
C           76.21474616258455        0.00522335546088        3.42098307220903
C           77.43077832850011        0.11661751291912        2.76402456867348
C           78.68341350732356        0.28147587553786        3.43494225260469
C           79.64510065480908        0.24802989812640        2.48138466542279
N           77.62075345316147        0.02178397628978        1.40373748209174
C           78.97583253321996        0.07228779100152        1.23166681082535
C           79.65193830708174       -0.09126046838738        0.01864748334104
C           78.98364570866508       -0.21919644446177       -1.20286413384368
C           79.66070563806299       -0.39279697268584       -2.44870299427646
C           78.71067294432670       -0.36101721065534       -3.41396548808826
C           77.45695330057767       -0.16612190335793       -2.75328567381977
C           76.25205815446266       -0.00555926530518       -3.42101906592195
C           76.26307147519539        0.01830175527626       -4.90987097396015
C           75.71511339971475       -1.04464574412564       -5.64013803205293
O           75.20022731743343       -2.06544332500929       -4.90605565478120
C           74.62373593905596       -3.18744142894937       -5.54372685073738
C           75.72888142268764       -1.02183570645795       -7.03438929961060
C           76.28545231180476        0.06522855352774       -7.69121352046492
C           76.83153866332651        1.12915518443737       -6.98927340770606
C           76.82317967081048        1.10474547617776       -5.59499547920963
O           77.32669962887594        2.09952758270384       -4.81865870100522
C           77.91502367454775        3.24124667787606       -5.40873378489096
C           75.03789691362023        0.12657638908496       -2.76460997680812
C           73.78765765804006        0.30785396170939       -3.43588686238538
C           72.82530764871602        0.28652066133690       -2.48269150020397
C           73.49200134928735        0.10384915041282       -1.23260010938878
N           74.84623074183698        0.03601926385648       -1.40409168719014
N           77.63353672462831       -0.11246554459587       -1.38914972753912
C           76.20504335158066        0.02800427798878        4.90992220805393
C           76.72773005402894       -1.04911808286530        5.63785860793146
O           77.21899714075307       -2.07979466330550        4.90143267435055
C           77.76719776495865       -3.21730324716616        5.53653340239469
C           76.71354439525383       -1.02924935876773        7.03214958665701
C           76.18204278377124        0.06903923056614        7.69110634187208
C           75.66171049895647        1.14723956825323        6.99136533655945
C           75.67030976145132        1.12579379242461        5.59702811811580
O           75.19052866160338        2.13357707884739        4.82240921117887
C           74.62850857864812        3.28743144108463        5.41455288598342
H           71.73182550120092       -0.42949017400286        2.55681956076877
H           73.62391951799988       -0.39083955465022        4.48285690080090
H           78.79954248291340        0.39903507055683        4.49999145761590
H           80.71386478652897        0.33074776893606        2.59697642189611
H           80.72668913527576       -0.51546627620140       -2.55402409734710
H           78.83531035395528       -0.45595816107814       -4.48033957679787
H           73.76433070907993       -2.90059467894914       -6.16172963740701
H           74.28554094973931       -3.84982445845162       -4.74477271512397
H           75.35645312845953       -3.71685290859195       -6.16474089912298
H           75.31207818110636       -1.83876846754944       -7.60804319240568
H           76.29393729880934        0.08362195332767       -8.77549730757278
H           77.25747190764083        1.96474706689502       -7.52829467157829
H           78.23944294814090        3.87658365189428       -4.58255925725614
H           77.19377932336731        3.79173436914812       -6.02483148296276
H           78.78502487889368        2.97379252115270       -6.02058089769288
H           73.67321720913390        0.42668283899573       -4.50095989754082
H           71.75772405879290        0.38297527903635       -2.59858669692128
H           77.02136284014016       -3.72971925425467        6.15619307992811
H           78.08892541249442       -3.88607343822089        4.73607774601778
H           78.63334719933938       -2.95340517800749        6.15534096777185
H           77.11056696348928       -1.85710677496895        7.60416226104525
H           76.17295460710774        0.08495739096382        8.77542514617783
H           75.25513455135673        1.99133094111706        7.53210704509236
H           75.36223745271671        3.82022292669549        6.03150224548451
H           73.75267801150599        3.03889370725433        6.02607501242202
H           74.31861454856264        3.93146577044808        4.58954231785730
