440
 energy: -687.562122485911 gnorm: 0.000246986311 xtb: 6.5.1 (b24c23e)
C           65.66519027409686        0.09753684918024       -0.02911247732491
C           66.28454865366484        1.29094449921771        0.31953651519387
C           65.64392612035562        2.50445546462904        0.69695321767181
C           66.61469371767846        3.43287984471776        0.94846375497111
C           67.87983304429606        2.81938476772247        0.72255905128263
N           67.62980711727160        1.52730340834090        0.35585449422371
C           69.14752506067376        3.39679243662888        0.85602655437353
C           70.35702250877455        2.72872934627857        0.65364777974369
C           71.65841077124666        3.36747631305521        0.73477526641882
C           72.57226070477630        2.40677538341245        0.48568387802486
N           70.50237298409156        1.41129050835883        0.34068903191485
C           71.82787693874427        1.18582497696608        0.24459716823716
C           72.45576028589311       -0.04577256703497       -0.03254561817246
C           71.80970782232630       -1.26406322555733       -0.31578190440548
C           72.44263789094956       -2.50927255822025       -0.57176065144523
C           71.46755483662585       -3.43397179013879       -0.82469963600022
C           70.20803160126721       -2.77844149479010       -0.73872231574638
C           68.94230879926609       -3.34430986124665       -0.92203953450069
C           68.90112308211228       -4.77718636413935       -1.30436981240199
C           68.27538760581420       -5.70914215419580       -0.47708330741187
C           68.24063426030749       -7.05416645883055       -0.82788552437150
C           67.55437149662372       -8.05564712128436        0.06136240926320
C           68.83212167015937       -7.46417098311306       -2.01937227598946
C           69.45922746456766       -6.54635687492109       -2.85643641875220
C           70.07727057815197       -6.99709365672337       -4.15244065332815
C           69.49213092159957       -5.20434425353387       -2.49283605670011
C           67.73138692767209       -2.66021654212212       -0.77334777872577
C           66.42374099184450       -3.24945502842787       -1.01565832408696
C           65.51662018901226       -2.28491874530727       -0.76104592003273
C           66.26914620267733       -1.10425257390224       -0.37511117661069
N           67.59926963386121       -1.36447128787172       -0.40261896553914
N           70.46689454024769       -1.47158672682121       -0.41842437635257
C           69.19120275484971        4.82933634048174        1.24158795419045
C           69.80734594689264        5.21754807233283        2.42991893549802
C           69.84761028323993        6.55798033597063        2.80070646693632
C           70.52779965567555        6.96602837896818        4.07954710738092
C           69.27010176584379        7.51250075541148        1.96990819409052
C           68.65147593802884        7.14087452192875        0.77925986055512
C           68.04963826333291        8.18592403408189       -0.12098707941410
C           68.61349950989600        5.79804018087590        0.42114217030415
H           64.57993054876890        0.11583849464752       -0.02933811832785
H           64.57588895651257        2.63514355312523        0.76883518834786
H           66.47345469757569        4.45211091011121        1.26976889027974
H           68.34867263338224        0.84319727326490        0.14505555635215
H           71.82705730015319        4.41211389972230        0.94044443083841
H           73.64675330374628        2.49167314936247        0.45463049902150
H           73.50885965667426       -2.66820952641717       -0.55715022289384
H           71.60445593694385       -4.48056526171800       -1.04275822883756
H           67.83212045756481       -5.37999965232962        0.45633933835101
H           66.53226762933025       -8.22152006652501       -0.28671937941618
H           68.07705818827345       -9.01240643584977        0.04266072718510
H           67.50973294196457       -7.69731085297456        1.08983017707494
H           68.80691424880445       -8.51296884276122       -2.29693251073577
H           70.89214087551203       -6.33493613071769       -4.44564909154684
H           70.46134948535257       -8.01381609846883       -4.06630474976441
H           69.32634441012333       -6.98416761189328       -4.94575987825730
H           69.96638981852810       -4.47800130387219       -3.14390328396452
H           66.24955202673131       -4.26064118730973       -1.34676638391983
H           64.44094979023721       -2.33449763340848       -0.82743763398844
H           69.75175099259961       -0.76604620263355       -0.27569665955090
H           70.24148304245766        4.46305241324152        3.07675166621824
H           70.34520304914822        6.23252691953024        4.86548264745948
H           70.17375973105918        7.94033883813617        4.41638418663664
H           71.60678388410518        7.03017048939705        3.92159087567877
H           69.29914977763434        8.55949842986602        2.25377001022584
H           67.62414001542008        9.00216117798496        0.46346595506148
H           68.82073269713885        8.60250591462846       -0.77309751057804
H           67.26891184231292        7.75632587634278       -0.74885986751768
H           68.14705856308616        5.49841726449117       -0.51108894514264
C          152.54992418005824       -0.09931127382303       -0.09714315993094
C          151.92834581966306       -1.30894829652947       -0.37961834665973
C          152.56681300804729       -2.55076226421475       -0.65477843428277
C          151.59412778264641       -3.48292563536868       -0.88411192524714
C          150.32988456454703       -2.83820031053959       -0.76616499587477
N          150.58244578090887       -1.53269520311067       -0.45265828490679
C          149.06090251671901       -3.40829703831926       -0.91704269641752
C          147.85253742989792       -2.72803171847210       -0.75278559642233
C          146.54908835498182       -3.32828973988314       -0.97370393597612
C          145.63730495464017       -2.36683903294526       -0.72032646954624
N          147.71012216415164       -1.42281479503470       -0.39069002197254
C          146.38489719014592       -1.17924235539385       -0.35452649349479
C          145.75938379630648        0.03835972348964       -0.01627658612875
C          146.40727634263132        1.24415265003342        0.31230180335822
C          145.77623037032703        2.46050268601039        0.68504492679037
C          146.75328337138058        3.38763839354276        0.92097384626776
C          148.01228889224453        2.76718190704259        0.68968868093602
C          149.27982842431771        3.34367394516903        0.81912664851913
C          149.32657676480406        4.77739718369652        1.19801066975866
C          149.94384059483718        5.16982015550197        2.38531304137286
C          149.98483275958660        6.51069898401045        2.75073438174529
C          150.66181403278583        6.93215826307901        4.02695892730006
C          149.40816407230801        7.46332829990325        1.91551372947757
C          148.78993760979080        7.08809535507888        0.72670119216178
C          148.18848889733124        8.12870471776818       -0.17894634228957
C          148.75063357730974        5.74331100472395        0.37386015524942
C          150.48926749971395        2.67011769258792        0.61873620984427
C          151.79847259346928        3.29844461198758        0.70321757984510
C          152.70352775011568        2.33221958911760        0.44777153883378
C          151.94833073780305        1.11715954182231        0.19778688121291
N          150.61860982216845        1.36013787134707        0.30094650867856
N          147.75084542640448        1.47045050467982        0.33218782297813
C          149.01429014162653       -4.84578952720190       -1.28379135269578
C          148.41326209879082       -5.76945116532772       -0.43055054303414
C          148.36826274501917       -7.11857046061782       -0.76766589890269
C          147.70335959796299       -8.10435223230033        0.15467995371958
C          148.92588949852950       -7.53950332643522       -1.97052607807353
C          149.52975181695086       -6.62918793226926       -2.83363123211840
C          150.10968697329034       -7.09412428267210       -4.14217039881866
C          149.57265616173825       -5.28415172428879       -2.48426957001447
H          153.63512312730512       -0.11609865518421       -0.11076319457065
H          153.63483291430853       -2.69957450758173       -0.66650668265391
H          151.73341516125527       -4.52816484116166       -1.10795101416583
H          149.86482585697365       -0.83358384129488       -0.29297537812493
H          146.37741831696232       -4.34342298688119       -1.29308083742793
H          144.56221470729375       -2.42748753323311       -0.77655663327151
H          144.70984153075378        2.59666268853624        0.76630283631831
H          146.61789424659503        4.40921461005994        1.23672708822595
H          150.37576572354337        4.41664978867565        3.03514771344007
H          151.68541353364685        7.25029351779608        3.81626542378925
H          150.13562365569339        7.76958170480690        4.48610681145766
H          150.70130256166988        6.10694938368340        4.73801096378298
H          149.43820702228061        8.51100863513508        2.19679554092699
H          147.37956269938988        7.70529731085025       -0.77458115911966
H          147.80044338566154        8.96808665977514        0.39859171723493
H          148.95032788029096        8.51062361517624       -0.86243463669797
H          148.28343233704689        5.44072598018637       -0.55701936106842
H          151.97492717341106        4.34044611492716        0.91669427780432
H          153.77944119426164        2.40541613239446        0.41636908760112
H          148.46501202185834        0.78080033303965        0.12250608372621
H          147.99440775934642       -5.43178224010846        0.51107781091488
H          147.89365353306385       -7.84757546248417        1.19720551346790
H          148.06260648961580       -9.11651514803287       -0.03126283564302
H          146.62276159035392       -8.09056068971941       -0.00478390092978
H          148.89260825806500       -8.59043615965497       -2.23895690054907
H          150.52943659683146       -8.09581276679214       -4.04595104956450
H          149.32735295886152       -7.12644154921709       -4.90394890794417
H          150.89040782807882       -6.41509026305524       -4.48528407616111
H          150.02751728216020       -4.56377399898929       -3.15550693014029
C           77.65734052705889       -0.13194257104181       -0.02999841081404
C           76.42893315747489       -0.11874749450190       -0.02968366856177
C           75.08489016092008       -0.09968736505101       -0.02993694254840
C           73.86112543450891       -0.07381255087753       -0.03063258450203
C           79.00134525207204       -0.13804193622607       -0.03058134956297
C           80.22555345262904       -0.13542642640448       -0.03251786035487
C           93.69015780861777        0.03512559022552        0.06553272068014
C           92.46115588626689        0.02395708574568        0.06948500144957
C           91.11810489968386        0.00905852514542        0.06613542776287
C           89.89365000838899       -0.01125673443197        0.05744182366142
C           95.03324256033487        0.03861508943571        0.05463723481299
C           96.25778686570690        0.03993018460325        0.03709701048063
C          109.72139166548057       -0.07518533716125       -0.19988226296066
C          108.49234478143418       -0.07434159438760       -0.19890239467370
C          107.14927626440725       -0.06810349399598       -0.19198622500280
C          105.92465634806692       -0.06210138601773       -0.17840775636472
C          111.06447801885420       -0.07519271828373       -0.19226883525255
C          112.28912002411742       -0.06978042840369       -0.17992256084690
C          125.75301632409386        0.02328220150479        0.06220565892404
C          124.52396996285140        0.01482384216996        0.06192056911683
C          123.18090625101850        0.00636508231273        0.05224328777065
C          121.95636582442381       -0.00500184130578        0.03819127198931
C          127.09612600802566        0.02941694064880        0.05702315173332
C          128.32071099308223        0.03592600296729        0.04471471826226
C          141.78596685059773        0.08656271193941        0.00667128834723
C          140.55744459491862        0.08579517632388        0.00698590697960
C          139.21347009501892        0.08156610181812        0.00430009648724
C          137.98930331437529        0.07135815422272       -0.00263863600160
C          143.13008621722761        0.07864242777799        0.00227491554745
C          144.35401850021140        0.06297390664814       -0.00391273239877
C           81.63018258189499       -0.12494769114934       -0.03131715048152
C           82.26648163160229       -1.29560631766841        0.42453170056359
C           81.62727843804507       -2.46895735019199        0.90145633746498
C           82.59992373663347       -3.37199864152117        1.23434359717557
C           83.86196536244474       -2.77742906149948        0.96241480161870
N           83.60942670224246       -1.51987286607096        0.48280994183520
C           85.12603650109777       -3.34631442476841        1.16011834621464
C           86.34607211269929       -2.71035260012914        0.92827915389370
C           87.63753838004898       -3.35223099306043        1.09610555685802
C           88.56837037932432       -2.42566418904000        0.78730883370155
N           86.51410532085221       -1.42613727454854        0.50597563231713
C           87.84403939353720       -1.22453402600530        0.42157520555836
C           88.49019131437926       -0.03080928401710        0.03961290262897
C           87.85257677041164        1.15644578836913       -0.37083216584915
C           88.48986894357910        2.36962207768014       -0.73823212738826
C           87.51739400387517        3.26623123681387       -1.08852779128156
C           86.25765676940196        2.62243580108783       -0.95179748367842
C           84.99480468542491        3.17192917308886       -1.20233475211963
C           84.97111728976182        4.56337178656837       -1.72000086888740
C           84.35955718892603        5.57739515631688       -0.98361929667631
C           84.33092107173655        6.88105918657659       -1.46577079029288
C           83.68859845191245        7.97745592084943       -0.65969482157717
C           84.91795067214245        7.16683183849145       -2.69541740156112
C           85.52995995391767        6.16580067514773       -3.44285489019272
C           86.17374784359573        6.48539325188128       -4.76501635716365
C           85.55725229102892        4.86587903707414       -2.94788022174292
C           83.77520061890867        2.52244466684153       -1.00710960041178
C           82.48612374655686        3.11002369856383       -1.32504826683385
C           81.55484624916382        2.19248996541498       -0.99188749210113
C           82.27688373097546        1.04308663171895       -0.48337525917048
N           83.60642137498493        1.26481910959131       -0.51265719964873
N           86.51102981109833        1.35239092385698       -0.50601858266115
C           85.14838286173658       -4.74438415937621        1.65968413429505
C           84.58932001491532       -5.77087130053970        0.90070813957926
C           84.61065878908116       -7.08352305928054        1.36203930584213
C           83.99418919076925       -8.18182107393368        0.53832624882496
C           85.19022662449485       -7.36296599418260        2.59510688064264
C           85.75115891838281       -6.34807874405361        3.36597214922282
C           86.35766064364492       -6.66233050269278        4.70680570526146
C           85.72825739157442       -5.04114548665746        2.89284678036882
H           80.55964591554650       -2.59544816394325        0.98135418598891
H           82.45801274666198       -4.35974236112651        1.64150781271898
H           84.32485948842111       -0.85119628624578        0.21771345493576
H           87.78908257958970       -4.37628255198591        1.39660510330395
H           89.64229776372119       -2.52260407794046        0.79031485856703
H           89.55602383283130        2.52900564143785       -0.72833203712761
H           87.65740678787670        4.28680568334370       -1.40540043507305
H           83.91530501484975        5.34382146264492       -0.02231197774438
H           84.44931023285130        8.50981685969629       -0.08417180476436
H           83.19318062116341        8.69736616448288       -1.31181677656078
H           82.95657509511992        7.57032150963241        0.03778613526410
H           84.89379936617377        8.18242990040330       -3.07699886477347
H           86.09929703982733        5.63831576212027       -5.44735519200618
H           87.23270812033660        6.70958073353028       -4.61734347037591
H           85.70380375360027        7.35378917193557       -5.22690560331746
H           86.01766083046790        4.07426952120622       -3.52904288168141
H           82.33653806599266        4.08679854359724       -1.75566084111439
H           80.48229671021033        2.25849511014651       -1.08089628123589
H           85.79678712632203        0.66121570880129       -0.30260856663360
H           84.15386661183733       -5.54380198230831       -0.06635700292788
H           84.39740467250107       -9.15437352487494        0.82046625078710
H           84.17796517810287       -8.01779031486590       -0.52392710122386
H           82.91326362299100       -8.20133766784531        0.69507281851048
H           85.20922449786451       -8.38477177788089        2.96003059617922
H           87.08220655212828       -5.90058132369637        4.99469048628920
H           86.85361593651130       -7.63323970626316        4.68903913671952
H           85.57608903529832       -6.69552020183616        5.46929422414783
H           86.15120277283233       -4.24008755953892        3.48905049562385
C           97.66115979125080        0.02844296265761        0.01183514579734
C           98.28530559353213       -1.14643348412099        0.47571237313360
C           97.63507997751202       -2.29330516446982        0.99944776951523
C           98.59679679803155       -3.21303344081371        1.31847182088603
C           99.86223262648650       -2.65651057429003        0.98870320318065
N           99.62351974643158       -1.40216241579715        0.49337070915649
C          101.11776772435817       -3.25639063755892        1.14451354397237
C          102.34350560764717       -2.65953484926861        0.84782651845630
C          103.62236566064018       -3.33649337140065        0.96661109792495
C          104.56449112614234       -2.44063882012944        0.60564559170254
N          102.52877946192196       -1.38592824221510        0.40138468583203
C          103.85901135192535       -1.22302493000372        0.25836688527689
C          104.52129590893080       -0.04887712743084       -0.15541495103486
C          103.89941344729290        1.15282354121767       -0.54780270135275
C          104.55348925510610        2.34940538977623       -0.93887192385575
C          103.59193449165230        3.27076973055432       -1.25351443957413
C          102.32209109396294        2.65894790325348       -1.07150758565779
C          101.06499249244493        3.23961480855949       -1.27843680465619
C          101.05840343644491        4.63341283537908       -1.79004950915017
C          100.49389575730639        5.65727719701964       -1.02997198074172
C          100.48491269617516        6.96472571296236       -1.50242893355341
C           99.89496485547609        8.07150648372258       -0.67090443571052
C          101.04386965652085        7.24447896211704       -2.74646557783109
C          101.60792953565043        6.23357962286056       -3.51799190809190
C          102.22241979181808        6.54696602386887       -4.85548491485816
C          101.61590412088611        4.92975887432614       -3.03270134352578
C           99.83714647535976        2.61931995665727       -1.04464766996509
C           98.55327201835317        3.23438940225333       -1.32981754038546
C           97.61118286097160        2.33827808479988       -0.96939753930634
C           98.32107861465526        1.17609248341409       -0.47324697036806
N           99.65365252076278        1.36771634810512       -0.53948568019644
N          102.55919797839431        1.38246112335265       -0.63537261660986
C          101.12443767706607       -4.64476791893745        1.67059594643570
C          100.50442493887302       -5.67007764758610        0.95895810972263
C          100.51096802527680       -6.97337862149786        1.44662141192071
C           99.82851583482419       -8.07034079990697        0.67484019110218
C          101.13743855582906       -7.24422353915378        2.65843978122991
C          101.75985803332793       -6.23024848050331        3.38202531802339
C          102.41766908929414       -6.53568905358073        4.70051359312933
C          101.75121083175259       -4.93303816419697        2.88275582764822
H           96.56824193662952       -2.39173443497058        1.11916776143722
H           98.44531515814410       -4.18812373650267        1.75180749762221
H          100.34500563268489       -0.75735448899270        0.18853632843476
H          103.75780438394574       -4.36123143154101        1.27242028173410
H          105.63428162183361       -2.56857017039728        0.56209116366980
H          105.62299494269466        2.48169187576059       -0.96785450900969
H          103.74659968234178        4.28774252795080       -1.57505690752326
H          100.07183387844233        5.42805143320439       -0.05767677334616
H          100.68690889611106        8.58658389909031       -0.12242812585935
H           99.39104277016001        8.80335228383332       -1.30294873951589
H           99.18059148579968        7.67738210124324        0.05186898502068
H          101.03560869083735        8.26326075957313       -3.12015845178917
H          102.11673330736350        5.70355550406493       -5.53819886288718
H          103.28830192680968        6.75367655889073       -4.73442846051268
H          101.75497053636434        7.42447772112865       -5.30246588488740
H          102.03881484933846        4.13098788810783       -3.63225945334207
H           98.41403731209759        4.21281245897820       -1.76022275972464
H           96.53827242129911        2.42746127882967       -1.02971265199483
H          101.83553979730692        0.71009931839906       -0.40409584773392
H          100.03250883541861       -5.45032528550021        0.00744410182205
H          100.22484606670123       -9.04712459509431        0.95210084474031
H           99.95963671879964       -7.92733284485031       -0.39817201536014
H           98.75718409505960       -8.06312154772385        0.88828009575158
H          101.14507245747204       -8.25862467751184        3.04386011775082
H          103.15187479903975       -5.77169235667474        4.95600235073705
H          102.91390122819467       -7.50618150162937        4.66896637419603
H          101.66602866584367       -6.56597483881546        5.49259278770629
H          102.22224340045641       -4.13230170502207        3.44220612032976
C          113.69250530753015       -0.06444822629591       -0.15519574465450
C          114.31516074599170       -1.23019836511352        0.33279680595019
C          113.66192750849905       -2.39121202800773        0.82051331247715
C          114.62412351216840       -3.29386310191321        1.18371767637600
C          115.89350616525391       -2.71191772986035        0.91924579145367
N          115.65552163023925       -1.46104406857609        0.41475022623316
C          117.15102866249300       -3.28655090356008        1.14000762608700
C          118.37843601828747       -2.66449871043493        0.90862670222152
C          119.66259818172679       -3.31658266691306        1.09211113094571
C          120.60416440273033       -2.40286330198521        0.77745891046493
N          118.56120919978757       -1.38707915141150        0.47250814473453
C          119.89364494161642       -1.19884600395851        0.39495900129621
C          120.55300704600759       -0.01296720272868        0.01163178549634
C          119.92822068237737        1.17934630962119       -0.40433551955884
C          120.57777135658861        2.38975587022885       -0.75845900046058
C          119.61540429230720        3.29422412814001       -1.11675209235289
C          118.35020958442436        2.65734085731623       -1.00067106581980
C          117.09416502810387        3.21314912884746       -1.27250549711337
C          117.08634370310861        4.60794051340531       -1.78134394572013
C          116.46103924559966        5.61805725827182       -1.05055276579764
C          116.45100256309939        6.92622829493981       -1.52011661491362
C          115.79438103819368        8.01927643462227       -0.72103870327467
C          117.07041061594673        7.22115863508039       -2.73198966634961
C          117.69537521061015        6.22450377503223       -3.47385845987320
C          118.37464228354992        6.55128661572731       -4.77636428144492
C          117.70347898207643        4.91926114141658       -2.99141126198199
C          115.86873138468013        2.56741586307513       -1.10497034147537
C          114.58928066154533        3.15746536201138       -1.45529783567541
C          113.64770108145956        2.24334541659001       -1.14184059660960
C          114.35407134953958        1.09471868965893       -0.61025776555901
N          115.68430363614311        1.31157004992706       -0.61047752423980
N          118.58976002457759        1.38422059441985       -0.55625862760495
C          117.15875787520325       -4.67546033989821        1.66469782056617
C          116.59930153966199       -5.71246104461985        0.92006799962545
C          116.60851731044633       -7.01609013365545        1.40584485234928
C          115.99188046853099       -8.12775006719640        0.60044981933105
C          117.17589210663523       -7.27610406638015        2.64916981820978
C          117.73687847500915       -6.25080602663840        3.40564273411357
C          118.33034937716015       -6.54323808107089        4.75719904384374
C          117.72650858749458       -4.95275508283709        2.90782960117602
H          112.59253406360102       -2.51035506267189        0.88671303483860
H          114.47017164228940       -4.27345308262202        1.60590780734438
H          116.37869924782369       -0.80108023559182        0.14884336160343
H          119.80235111760453       -4.33849004713611        1.40534817581933
H          121.67707540014241       -2.50998538020937        0.78785952368917
H          121.64463669231500        2.54259400652851       -0.73375733699947
H          119.76626324850888        4.31545461687650       -1.42636892384217
H          115.99229779468145        5.37720225677722       -0.10276492828363
H          116.55012897477749        8.57906076161376       -0.16544923501207
H          115.27284253221892        8.71681653169712       -1.37729431871530
H          115.08181571599549        7.60620882646997       -0.00718711435106
H          117.06154891926683        8.24091043795177       -3.10300473699897
H          118.25392637832825        5.73635382431952       -5.49068107166559
H          119.44412117413106        6.69949443599276       -4.61012560166369
H          117.96743744894550        7.46459577859855       -5.21012144199716
H          118.17426661683723        4.13128647455757       -3.56918895502074
H          114.45309369233877        4.13306974809214       -1.89301876813123
H          112.57771960246700        2.31169022180950       -1.25667096262186
H          117.86865709285907        0.69688988269400       -0.36433945880843
H          116.17390907273898       -5.50050351637928       -0.05485466844193
H          116.45233116120905       -9.08564859994915        0.84274347230343
H          116.10458506128145       -7.94131709234688       -0.46781686357527
H          114.92429467775857       -8.19756012235839        0.82151016327150
H          117.18518985930613       -8.29117035028884        3.03280752816114
H          119.06167681971617       -5.78381161445701        5.03389193288972
H          118.81507124055985       -7.51992312643652        4.76385585500014
H          117.54316914388492       -6.55088806049630        5.51458795510169
H          118.15015745951933       -4.14343721368233        3.49226930921763
C          129.72428353825413        0.03732152544133        0.02893080249325
C          130.35701861837319       -1.13600148949979        0.48453114136394
C          129.71467305722388       -2.29954210372580        0.98095766727152
C          130.68339605160679       -3.21470679185109        1.29144640961721
C          131.94586241250170       -2.63774113619705        0.98572514947861
N          131.69780268015882       -1.37696064566486        0.51154246638232
C          133.20637290614948       -3.22546137764868        1.14530870578437
C          134.42855914654859       -2.60521588802305        0.88220280957363
C          135.71503060422651       -3.26645724251108        1.00824924199684
C          136.65031090184763       -2.34761874230049        0.68994017699368
N          134.60274795503656       -1.31863031662538        0.47140323123230
C          135.93334838220281       -1.13200823478331        0.35959078714141
C          136.58476372659797        0.06260754270382       -0.00817137387534
C          135.95245113529216        1.26122263640586       -0.39156810358838
C          136.59528283037932        2.47352726352631       -0.75186144688672
C          135.62651393005154        3.37880576720254       -1.09003143980023
C          134.36356695506547        2.74167261135930       -0.95180793030129
C          133.10284475727170        3.29975591917327       -1.19655219211871
C          133.08887704550796        4.68921442500778       -1.71952354653113
C          132.48533866485894        5.71211313236312       -0.98832631977349
C          132.47086687535923        7.01389244334658       -1.47539873561881
C          131.83816861350923        8.12090115471678       -0.67622930907825
C          133.06392590974016        7.28961982759318       -2.70488737253410
C          133.66750075593964        6.28017024642020       -3.44703574510906
C          134.31862855045307        6.58465368372658       -4.76919491486064
C          133.68024551269417        4.98155701164269       -2.94715307960764
C          131.88023401214303        2.65963402669786       -0.99169456586496
C          130.59273456047438        3.25450936555731       -1.30220343647117
C          129.65765792448155        2.34645922807937       -0.95362272217407
C          130.37578145916189        1.19521134290268       -0.44368748736268
N          131.70616533197907        1.40598611468904       -0.48775329062719
N          134.61113050275495        1.46740054408237       -0.51591836518245
C          133.22436210173353       -4.62570934992934        1.63847104797791
C          132.62816096890683       -5.64172413551802        0.89334931326699
C          132.64833428552097       -6.95643782872823        1.34788449873736
C          131.99294139630379       -8.04535541895448        0.54200253864612
C          133.26363119316906       -7.24884093813448        2.56087146086586
C          133.86117210674036       -6.24478995251209        3.31778430134838
C          134.50662230958159       -6.57167317287465        4.63723646150611
C          133.83944121689004       -4.93533782870833        2.85106091736730
H          128.64783817732339       -2.41203123933677        1.08774095878234
H          130.53890712910848       -4.19978633190561        1.70413854980493
H          132.41494655289574       -0.71854373963813        0.22623683096128
H          135.86016749563643       -4.29673281063666        1.29002027415370
H          137.72257981350381       -2.45849071301797        0.66488522244404
H          137.66250021571551        2.62593432371294       -0.74715639279605
H          135.77138002549893        4.40096856407901       -1.39948699074975
H          132.03757435600076        5.48668941904176       -0.02671087184515
H          132.60813501879682        8.67599943715505       -0.13562481181541
H          131.31569457755154        8.81936777472380       -1.33071556884365
H          131.13097307186069        7.72186944114993        0.05083371172956
H          133.05132738016644        8.30438054529799       -3.08923941422062
H          134.15022625341786        5.77371172939951       -5.47850105375760
H          135.39686368096562        6.69733199209211       -4.63488615044575
H          133.92881222340520        7.51045968945235       -5.19221013320298
H          134.13469431564167        4.18366416230680       -3.52443485861033
H          130.44659570489631        4.22935567570281       -1.73840011026491
H          128.58477061769818        2.42001030736981       -1.03257761331669
H          133.89371645831756        0.77901832406671       -0.31425465312822
H          132.16526165941391       -5.40450150659852       -0.05839745145164
H          132.45214755579087       -9.01227065554453        0.74812188537798
H          132.07013451214939       -7.83760543358445       -0.52550362599547
H          130.93306999448021       -8.11000710606605        0.79883222825880
H          133.28190739480021       -8.27274028593163        2.91992451440694
H          135.26467186122099       -5.83153869317154        4.89361899684181
H          134.97100832280046       -7.55772291720633        4.60735523972201
H          133.75308582086936       -6.57603700812345        5.42814502671752
H          134.29159676971778       -4.14246511345413        3.43667680584373
