244
 energy: -486.196569274746 gnorm: 0.000755153763 xtb: 6.5.1 (b24c23e)
Ni          52.35426703792103        0.00156144909240       -0.08058500913274
C           48.96299370827250       -0.00781379789518       -0.19090903573652
C           49.61540972837508       -1.22228888095509       -0.22653940051334
C           48.93943697096648       -2.48299295949803       -0.27180421214949
C           49.89663967301109       -3.43235362002429       -0.38745422398149
C           51.15644039216006       -2.74801125190530       -0.42905221773870
N           50.97569134317014       -1.39545479414500       -0.28893276318628
C           52.37654086065715       -3.37906877526672       -0.63648141931927
C           52.38748719110166       -4.83983480307626       -0.87954934202538
C           53.06205793880511       -5.69643871218412       -0.00465289273357
C           53.07069016272611       -7.06175226201117       -0.22582057051206
C           52.40411983280878       -7.57369605345627       -1.33522510302231
N           52.41074902995358       -9.00721883246344       -1.57306303335428
O           51.82425941906738       -9.41329658117003       -2.54301055855988
O           53.00321315046097       -9.69944747334112       -0.78628828074169
C           51.73067213581209       -6.73750107366065       -2.22083555830099
C           51.72298725927621       -5.37437373483337       -1.98736723420966
C           53.58603602016147       -2.69600823582247       -0.63806007059955
C           54.84706457229331       -3.31017211322625       -0.92557557799707
C           55.79274044013921       -2.35429365010112       -0.76322527171708
N           53.75546497167763       -1.36344607021244       -0.34121969911908
C           55.10819488764501       -1.15982412258302       -0.38187317582795
C           55.76568199897318        0.02249102292402       -0.03646895105510
C           55.08577262693096        1.19275470752326        0.30632098264044
C           55.74564003883294        2.38723198313512        0.72876883652980
C           54.78277911329182        3.32438068013192        0.89959576428291
C           53.53706926789867        2.70152251418025        0.56687519740178
N           53.73161869339676        1.37880950689192        0.24183816469112
C           52.32061687778739        3.37135410097061        0.53680476298248
C           52.30128307167665        4.82476719371052        0.81962852715197
C           51.57337958654692        5.31965414994587        1.90590898508770
C           51.54878321514894        6.67576423369579        2.17606290401274
C           52.25411835267627        7.54512191690328        1.34910053442841
N           52.22726509531449        8.97145967288302        1.62530331259120
O           51.57974611925609        9.34357457590281        2.56970583727975
O           52.85461500507785        9.69233040188993        0.89310651299221
C           52.98329416072410        7.07305487092606        0.26161686796455
C           53.00572945777296        5.71446380315481        0.00320928166615
C           51.11894243144544        2.73624786462440        0.24814847045162
C           49.86019141744863        3.41514586222738        0.13897005690900
C           48.92009670930646        2.46509533580612       -0.07175720955139
C           49.60538436683193        1.20884113952955       -0.09847142906176
N           50.95709307542539        1.38696519725669        0.06305542909101
H           47.88009690501725       -0.01016992183616       -0.23022062822814
H           47.86953577506006       -2.60499769920594       -0.21813730443852
H           49.77409722967143       -4.50199122035391       -0.43732631217228
H           53.56783733440739       -5.28567882926134        0.86137655843320
H           53.58455014818681       -7.73491003831289        0.44983766370684
H           51.22364040913867       -7.16102891052437       -3.07945323484357
H           51.21179586737679       -4.71099032610098       -2.67518385221902
H           54.98095801528502       -4.33753076617596       -1.22221838570877
H           56.86000386327375       -2.43613030065220       -0.89001813129373
H           56.80914543137391        2.48037780946157        0.87805827898844
H           54.89587721799374        4.34488813112945        1.22691495104773
H           51.03710004977273        4.63067833079181        2.54795607696176
H           50.99214299495528        7.06856893152584        3.01840392544408
H           53.52021601254566        7.77154876289135       -0.36888189889083
H           53.55909192190454        5.33521491870583       -0.84796215098369
H           49.72742159104615        4.48242560546546        0.20906058016850
H           47.85587013846352        2.58337090523178       -0.19780510681345
Ni          84.91337391984602        0.07231921369068       -0.03036691080109
C           88.29806906641518        0.11400338759581       -0.14667922060327
C           87.64962281934511        1.24141889841678        0.31387499120644
C           88.32226878099333        2.41283367838502        0.78711250287558
C           87.36627302439447        3.34201106894916        1.02137047798232
C           86.11075052058169        2.74247664075770        0.67288889481679
N           86.29114626061425        1.43727164546449        0.29174686082268
C           84.89882340406048        3.42222265018254        0.64205708044833
C           84.88615110723973        4.87065484020706        0.94480336936410
C           84.12410696955892        5.35910325472515        2.01066285209618
C           84.11432863935229        6.70988766980582        2.30684864575003
C           84.86839354828368        7.58119406004901        1.52611932946630
N           84.86286789128943        9.00121014533346        1.83395189349285
O           85.53441585520466        9.72335660980792        1.14325818271091
O           84.18823009738000        9.36713939241342        2.76163665875593
C           85.62849743728975        7.11643252812259        0.45679501586453
C           85.63592934944127        5.76298405011041        0.17241685427237
C           83.69704108813502        2.79634023004221        0.33200684547202
C           82.44801063827548        3.48150627968077        0.19245105547360
C           81.50014445809194        2.53093073003393        0.00809685488863
N           83.52015242816785        1.44087011259640        0.17961040738679
C           82.16965483689106        1.26987895940950        0.03526064600936
C           81.50608891999921        0.03940826436203        0.03710537534846
C           82.19238442488694       -1.17856228541821        0.02550966692893
C           81.54928604012071       -2.45147257611836        0.09816461570107
C           82.50930225027351       -3.38689048249462       -0.10099056954607
C           83.73784966226151       -2.68016298205137       -0.30232203904924
N           83.53963745678455       -1.32577098452962       -0.16539563575681
C           84.93594476694356       -3.28512093764698       -0.66365092050590
C           84.94360639418106       -4.73844806830079       -0.94161396202137
C           85.76426308942025       -5.59616116275610       -0.20268708609094
C           85.77964868218554       -6.95382746537554       -0.46569489825520
C           84.97052219648587       -7.45795129303069       -1.47979813860185
N           84.98878970128273       -8.88239829849188       -1.76583706843387
O           85.72451970529920       -9.57290022601570       -1.10894402746597
O           84.26971052881103       -9.28307119881638       -2.64443143667554
C           84.14565741214854       -6.62163756288201       -2.22640823593342
C           84.13381935349696       -5.26626615919426       -1.95207081906947
C           86.12669602955953       -2.57733173887863       -0.78057463922995
C           87.36989011547426       -3.15061376156887       -1.20846843063347
C           88.31472350576749       -2.19288589409567       -1.05960161361187
C           87.64706365359375       -1.03211275742837       -0.55411634156902
N           86.29913875416948       -1.26229249546170       -0.43163504284877
H           89.38082654658839        0.12791244796341       -0.18640491632837
H           89.38951250589840        2.49459817102576        0.91669879912785
H           87.48782446950757        4.34501289257306        1.39673869381419
H           83.55129795131327        4.66830144170850        2.61834902892896
H           83.53351779442694        7.09694575873829        3.13543875627189
H           86.20203153919320        7.81644219827125       -0.13881881598769
H           86.21376184849403        5.39015002728704       -0.66519570258959
H           82.32294417846819        4.55151523009242        0.22316441945169
H           80.44011131675381        2.65974081335791       -0.13576955151749
H           80.49774546666860       -2.59761582893508        0.28297619095197
H           82.40505091020152       -4.45955569479018       -0.10582896441571
H           86.38073559764983       -5.19285505549112        0.59216547777443
H           86.40871978292401       -7.62703883038902        0.10416420113635
H           83.52791107383047       -7.03887868292214       -3.01254235615056
H           83.50653896873708       -4.60233970617412       -2.53543085202599
H           87.49100152335943       -4.15635654687741       -1.57658322231067
H           89.37162752102439       -2.24918890877622       -1.26518260481534
C           57.17545640404263        0.03122903101901       -0.02569586528622
C           58.39110957045150        0.03410756825000       -0.01989126998196
C           68.03356409804644        0.01284298236554        0.00622436982536
C           69.24974322874792        0.00935333592324        0.00820397814972
C           78.88073524487677        0.01792378816723        0.05788412325697
C           80.09731289263664        0.02662091882822        0.05167325312221
Ni          63.21274108830017        0.02454013567670       -0.02047305965543
C           59.80039465577033        0.03332356020488       -0.01662556227506
C           60.46989185291621       -1.17127621204474        0.21093106913724
C           59.80338501329181       -2.40054562421625        0.50150373261449
C           60.75574058767089       -3.36414040555317        0.52508901402660
C           62.00138435288807       -2.71932854203393        0.24006489797801
N           61.82000600680220       -1.36332963588025        0.09757386132223
C           63.20428348101985       -3.39194468727202        0.06336157298678
C           63.20097638083829       -4.87168964566281        0.10249262704649
C           63.96055864476565       -5.55255508564731        1.05863055495325
C           63.95684815132147       -6.93482207996803        1.10449252631630
C           63.19153795499081       -7.64209289784149        0.18206278944024
N           63.18483924153415       -9.09513406024857        0.22549807791181
O           62.50431561529647       -9.67245690275274       -0.58209495535030
O           63.86155243646299       -9.62949024019048        1.06538209390968
C           62.43173200825419       -6.98368065948664       -0.78025871103654
C           62.43737168424947       -5.60099426976519       -0.81383635986990
C           64.41039610356636       -2.73450460023036       -0.14357896487626
C           65.65356317141028       -3.39820859801901       -0.39387399062105
C           66.61121383059393       -2.43963341485641       -0.40881716052183
N           64.59899803079219       -1.37409956819953       -0.06260765241553
C           65.95051606107164       -1.19503144250609       -0.17686701145687
C           66.62524173167493        0.01581031585726       -0.00034324228600
C           65.95373111347865        1.23025007575445        0.16246906490656
C           66.61784846273926        2.47385383221492        0.39030354615480
C           65.66628256698847        3.43758391986269        0.34721750336218
C           64.42292773318896        2.77768027401685        0.08770443680018
N           64.60478773878086        1.41552649430415        0.02655543267538
C           63.22243243848781        3.43989949082586       -0.13765673253009
C           63.23264492006324        4.91852658251405       -0.20424803500544
C           64.00722584436157        5.57256541462367       -1.16726807112132
C           64.01880809639677        6.95353498161933       -1.24041115468900
C           63.25372731476213        7.68697019703974       -0.33839315942877
N           63.26363775353867        9.13882020635042       -0.40996369100697
O           63.94727458290217        9.64903936189731       -1.25926633869948
O           62.58733694355557        9.73947072828813        0.38413505491959
C           62.47930604575046        7.05564990003596        0.63040751826951
C           62.46995361987575        5.67388168297202        0.69146430546560
C           62.01506580428665        2.77278469853854       -0.30439059404281
C           60.77141353679486        3.42151957405707       -0.58993791999558
C           59.81326576275758        2.46433399065772       -0.54736251259644
C           60.47464433920329        1.23414191573296       -0.24907520870095
N           61.82637089733513        1.41959842474868       -0.14483415640219
H           58.74283537807562       -2.49934642179289        0.66664124960646
H           60.63519635526443       -4.41661044043266        0.72299567403635
H           64.54245009418625       -4.98923590595279        1.77879117665432
H           64.53626816062652       -7.47171092372577        1.84593395222934
H           61.84827766154358       -7.55835242720572       -1.48952295195345
H           61.85896891228180       -5.07601965331490       -1.56509048977507
H           65.76891866544004       -4.45913457592968       -0.54398804427647
H           67.67184423506407       -2.55159415917078       -0.56460200981981
H           67.67653430138903        2.58155946211252        0.56156527173358
H           65.78534018550531        4.49971632189721        0.48547449005434
H           64.58919033875780        4.98898354020725       -1.87106553436132
H           64.61032247943874        7.46947971630149       -1.98716488682749
H           61.89652502245880        7.65033564938931        1.32355035251018
H           61.88078920760573        5.17029455721540        1.44896221476041
H           60.65567310154051        4.47219616613823       -0.79981338248362
H           58.75186271859082        2.56755644613292       -0.70460438971676
Ni          74.06415725085371        0.00891495681836        0.01337024500856
C           70.65776902310509        0.00834087498352        0.00785232958549
C           71.33282847247398       -1.18586068758801        0.27628431207790
C           70.67929190831933       -2.41031896965735        0.61245319125823
C           71.63503408370173       -3.37148447775698        0.62852951435809
C           72.87022665420935       -2.73045351323323        0.29358321904028
N           72.68042812355536       -1.37712427770274        0.13684234123138
C           74.06708684609916       -3.39940446290210        0.06539712263815
C           74.07078038557704       -4.87835857822118        0.09290546812322
C           74.89798442808332       -5.56399287460283        0.98800986183875
C           74.90152606997609       -6.94643603435298        1.02389911081875
C           74.07462139087475       -7.64990917601626        0.15309852606938
N           74.07527509963759       -9.10311424022232        0.18616972455293
O           73.33341985267688       -9.67700040871433       -0.56814655718690
O           74.81771011410170       -9.64126570846754        0.96602442590484
C           73.24667210066035       -6.98711427879258       -0.74809602097001
C           73.24642489368789       -5.60430698900972       -0.77239797087044
C           75.26230414854768       -2.73348346272050       -0.18210477308911
C           76.49802800958264       -3.38110255934554       -0.50064003045164
C           77.45273442900915       -2.41868279907588       -0.50619454751202
N           75.45062656720724       -1.37660923959455       -0.05907354283473
C           76.79901877399141       -1.18741073921749       -0.19817922668788
C           77.47239892878171        0.01230863080259        0.05288254183515
C           76.78972527122153        1.21044783457868        0.28646856194799
C           77.43296472334623        2.44588374185107        0.59972603328931
C           76.47892634167744        3.40772470649436        0.55055398465300
C           75.25354526974515        2.75466899744165        0.20490990593972
N           75.44546954276089        1.39647244243357        0.10770283320583
C           74.06523827273058        3.41658686500357       -0.08432993441655
C           74.07678286656854        4.89401479307527       -0.15249643493550
C           74.92933794156833        5.54733282980380       -1.04821286866087
C           74.94215273703524        6.92782931042711       -1.12704328202933
C           74.09916149404265        7.66240869790287       -0.29833717262092
N           74.10865766502722        9.11378133148672       -0.37735002295152
O           74.86324484501368        9.62286351463823       -1.16508478577351
O           73.36138205023258        9.71532158492936        0.34964072961967
C           73.24722311093443        7.03232651023836        0.60396993613556
C           73.23793362058821        5.65090594935423        0.67125256088133
C           72.87117986257711        2.74381071733462       -0.31465894339180
C           71.63747713377322        3.37837246705759       -0.66707583110049
C           70.68043835251008        2.41908438159525       -0.62943313090431
C           71.33277402340079        1.20080448593496       -0.26934405715979
N           72.67998876835117        1.39365849950604       -0.13184049839849
H           69.62407311775914       -2.50888071733811        0.80902798574052
H           71.52262184147257       -4.41986842385923        0.85154181601606
H           75.52721069325879       -5.00414722731844        1.67010405068740
H           75.53376912764783       -7.48655679536126        1.71839386725534
H           72.61581657870019       -7.55868107396586       -1.41827226092773
H           72.61583242680994       -5.07636657913654       -1.47825124201480
H           76.61123082936642       -4.43430888771253       -0.69923839054544
H           78.50754214072022       -2.52104309512057       -0.70137180279335
H           78.48072657072889        2.55105884410456        0.82798300312529
H           76.58528954359898        4.46370178256504        0.73793241308649
H           75.57129877910994        4.96301953593656       -1.69710608462739
H           75.59366917464308        7.44259429908099       -1.82293354838631
H           72.60500639221283        7.62787599491433        1.24162791913854
H           72.58897452586697        5.14892795205920        1.37935050816227
H           71.52635340878020        4.42157352263392       -0.91371801402789
H           69.62554544839632        2.51448358517129       -0.82926461837115
