256
 energy: -506.655225801006 gnorm: 0.000928346158 xtb: 6.5.1 (b24c23e)
Fe          44.65419201057637        0.00184127232990       -0.08143714793487
C           41.26729628651032       -0.00350692479866       -0.20512867323262
C           41.91469479590848       -1.22159970940696       -0.21346788865901
C           41.23565512111026       -2.48188284758168       -0.24157250444166
C           42.19122669997713       -3.43518095516095       -0.34247814942987
C           43.45294871090600       -2.75347976806211       -0.39163324471925
N           43.27210216346729       -1.40307471958275       -0.26625330036001
C           44.67422727162888       -3.38743570781017       -0.59495813474977
C           44.68081765773297       -4.84975714468130       -0.82658037767151
C           45.35722293768327       -5.70179544455238        0.05139373344522
C           45.36351428563341       -7.06841905940852       -0.16124750651480
C           44.69236822136136       -7.58676721839955       -1.26502878380428
N           44.69850318576824       -9.02098743838494       -1.49503457035450
O           44.10223432912006       -9.43389871931466       -2.45634080822246
O           45.30063276329815       -9.70871346802370       -0.71108031747505
C           44.01568787206368       -6.75528437196714       -2.15283278551523
C           44.01065149250010       -5.39078196456570       -1.92796465900394
C           45.88515069860453       -2.70866462690633       -0.60541116400824
C           47.14838429883337       -3.32615240496679       -0.88211274738692
C           48.09347729015228       -2.36838712274005       -0.72626482928588
N           46.05777656115861       -1.37480034423506       -0.32433558173380
C           47.40539557530992       -1.16938833291447       -0.36226486461153
C           48.06321469615651        0.01847911379059       -0.02198691516080
C           47.38348206549705        1.19455388830728        0.31690252542976
C           48.04730589247225        2.39097217934886        0.73093105087246
C           47.08576798996037        3.33008124636996        0.89917652204306
C           45.83807421779395        2.70699491597985        0.56928575993449
N           46.03466251630098        1.38347111113342        0.25476712710748
C           44.62260278192935        3.37544471745562        0.52502795191650
C           44.59823609357423        4.82835080539478        0.80916808073498
C           43.86178279694811        5.31723172744382        1.89250694793438
C           43.83337000210140        6.67187382544879        2.16896897691292
C           44.54307477672720        7.54619172196119        1.35073340547656
N           44.51505684316963        8.97027745369621        1.63540008845002
O           43.85757440021133        9.33804217508809        2.57487314977439
O           45.15117418508005        9.69544420537832        0.91460834211603
C           45.27860073423542        7.08023428235952        0.26476624808921
C           45.30524155291849        5.72283785808543        0.00038399669898
C           43.42117708985540        2.74247209217223        0.22276677522389
C           42.16507770398442        3.42369887611532        0.09228790474066
C           41.22562169927399        2.47349020523782       -0.12357296819823
C           41.90887847885976        1.21508807410510       -0.12952297341053
N           43.25641232559076        1.39647661258717        0.04451541432499
H           40.18428029862686       -0.00447632790820       -0.25177473224189
H           40.16536025837161       -2.60124038130940       -0.18829155022054
H           42.06580041823241       -4.50514944114366       -0.37732972600396
H           45.86654618435318       -5.28627527023929        0.91301961354870
H           45.87945060192320       -7.73777780339524        0.51657155884879
H           43.50455883785280       -7.18352236976650       -3.00666576117597
H           43.49740440754168       -4.73119360736039       -2.61788803776827
H           47.28418373928306       -4.35693928177078       -1.16594192338561
H           49.16196451450637       -2.45145847403907       -0.84234338069045
H           49.11174278910308        2.48390439248487        0.87373041220592
H           47.20127938650028        4.35253479334922        1.21970209708794
H           43.32211095311476        4.62424324447504        2.52733487484439
H           43.27076245733297        7.05975530134265        3.00960316240730
H           45.81793114499604        7.78253700691448       -0.35944499898216
H           45.86440266455880        5.34845719321274       -0.84909970189592
H           42.03342736857455        4.49184435688860        0.15192203015357
H           40.16338724965454        2.59349806725883       -0.26449211092705
Fe          92.61422424238903        0.06319238025136       -0.04796836809504
C           95.99814423644914        0.11135573499233       -0.16774684877761
C           95.35257923191520        1.23976184609710        0.29452067225983
C           96.03055201840584        2.41296790754727        0.75736682334478
C           95.07531621953962        3.33690010543994        1.01522343234441
C           93.81516842601653        2.73103718728512        0.69283096678218
N           93.99580009799493        1.43265223590324        0.30140956270270
C           92.59714252363381        3.40322232351902        0.71058843798803
C           92.59139927836303        4.84808312911188        1.03248618599473
C           91.88496061421851        5.32225218328794        2.14180241318409
C           91.87914092948560        6.67128041150797        2.44668466925774
C           92.58077340019533        7.55455084726004        1.63120397730872
N           92.57560170391473        8.97279963233052        1.94507488402025
O           93.19792535425889        9.70627290979696        1.22067657933524
O           91.94687594028457        9.32814925977332        2.90874819572528
C           93.28720482516094        7.10321283347415        0.52002953903733
C           93.29178722330158        5.75160999539603        0.22748935946118
C           91.38887495662429        2.78241066763394        0.42407078340864
C           90.12972195031477        3.46352783912765        0.35859431240204
C           89.18393859921768        2.51632476872612        0.14952291379485
N           91.21395894163199        1.43668297451383        0.20926189161862
C           89.86771456088221        1.26272251784904        0.08237964891677
C           89.20787940393929        0.03028531920617       -0.00080999059655
C           89.88809394022663       -1.19152158635258       -0.07993230770477
C           89.22734526171536       -2.45895368370421       -0.09630990536482
C           90.18786193218244       -3.39500725731882       -0.28771191733547
C           91.43152991045855       -2.69244520744927       -0.40467028644334
N           91.23470377524160       -1.34395086194454       -0.22633270273477
C           92.64132272667374       -3.29498014040890       -0.72138403815733
C           92.66028852896092       -4.74918310150240       -0.99664962580352
C           93.43118337314020       -5.60459831540130       -0.20350969394726
C           93.45247300169926       -6.96479009330238       -0.45217054188459
C           92.70078169102702       -7.47350324486089       -1.50747398590732
N           92.72208424131053       -8.90098219481975       -1.77526594862663
O           93.40772103192573       -9.59113344551034       -1.06559796657989
O           92.05024647939088       -9.30685883713351       -2.68859619754976
C           91.92974482989710       -6.63865148099173       -2.31118232864727
C           91.91096958874527       -5.28051646039998       -2.05060929906124
C           93.83947780712948       -2.59102607668314       -0.79644656189520
C           95.09043393081174       -3.16944542010817       -1.19575696365340
C           96.03105528107341       -2.20713374471202       -1.04823380425440
C           95.35353229171396       -1.04161995762253       -0.56541738670675
N           94.00731691219744       -1.27666305780145       -0.45786345342440
H           97.08110787941172        0.12863085017985       -0.21242440157325
H           97.09992446464493        2.49906152955220        0.86529526232905
H           95.20000896040706        4.33900329197773        1.39210711707897
H           91.35179566964970        4.62252984427856        2.77474449210565
H           91.34032273551236        7.04802503160788        3.30774445433885
H           93.82148866212192        7.81194145472684       -0.10119481230947
H           93.82817682386025        5.38843583949513       -0.64133765458372
H           89.99703592671146        4.52882829367833        0.45400602154849
H           88.11751835708949        2.63957636381369        0.05142461187604
H           88.16551448382681       -2.59901121841376        0.02600788395844
H           90.07396483721944       -4.46529495475064       -0.34273821307264
H           94.00312054217572       -5.19690934955124        0.62181281296421
H           94.04163386204442       -7.63646394580796        0.16054222643901
H           91.35739342206639       -7.05933821083443       -3.12917130435031
H           91.32483867615946       -4.61812705672885       -2.67684347363623
H           95.21860820277182       -4.18005826932029       -1.54800805571133
H           97.09073425201467       -2.26363749110481       -1.23928793899541
C           53.26162799373184        0.04797845649648        0.00784534937779
C           52.03134160209639        0.04579824069256        0.00801925593309
C           50.68994677661063        0.03813297645446       -0.00019670585995
C           49.46453569343920        0.02817852090792       -0.01046761632468
C           54.60277086031340        0.05124725715898        0.00862543180960
C           55.82859755409066        0.05178886302829        0.00509917271729
C           69.25632628914411        0.02225709454369        0.01971620582106
C           68.02538968895323        0.02733794042821        0.01675681663422
C           66.68557082601346        0.03227772007355        0.00928469087426
C           65.45924186713138        0.03725045544052       -0.00013978226836
C           70.59614024651442        0.01740282479808        0.02145151672274
C           71.82251982899530        0.01128459788518        0.01989587384495
C           85.24119950755734       -0.00371805077557        0.01005994931679
C           84.01056071507956       -0.00727690764456        0.01017643716831
C           82.67016991459187       -0.00981953835510        0.01017692781449
C           81.44398461019954       -0.00935169714905        0.00820104890074
C           86.58184929002505        0.00364576700298        0.00804109914934
C           87.80761276807858        0.01851561901490        0.00555459488007
Fe          60.64463104046988        0.04462681058509       -0.02520231731871
C           57.22875225197036        0.05037503413276       -0.00329475729382
C           57.89915672764058       -1.16419337995900        0.19091934920204
C           57.22552114260890       -2.40041506589627        0.43619797185615
C           58.17848667646773       -3.36367717698275        0.45513066933482
C           59.42922624051123       -2.70946226573149        0.21207741623280
N           59.24555478759097       -1.35414642126311        0.09343738839658
C           60.64021272734870       -3.37565767350696        0.06643056632412
C           60.64011954961734       -4.85600573719230        0.10641010543777
C           61.35089794928874       -5.53266907253030        1.10197575744260
C           61.35711897865920       -6.91503503799259        1.14392197475265
C           60.65133941645269       -7.62608626994415        0.17788281319522
N           60.66001426052043       -9.07892453878427        0.21363281404886
O           60.03776866916103       -9.66057453309892       -0.63703982930625
O           61.29046106321057       -9.61038091758360        1.09087830374712
C           59.93846946802254       -6.97129373536996       -0.82207929962982
C           59.93301071415812       -5.58842421971113       -0.85134226079041
C           61.85302316301984       -2.72177341099953       -0.10886625866924
C           63.10454425116808       -3.39088406776725       -0.30483642301018
C           64.06090213205627       -2.43112740471595       -0.31805792865082
N           62.04065121787986       -1.36216985280764       -0.05621869834419
C           63.38824812579085       -1.18227867136614       -0.14383652538830
C           64.06042476781525        0.04001600681815       -0.01027955025633
C           63.39029381454492        1.26490662224372        0.10664177665686
C           64.06484813411709        2.51435583868894        0.26887556328743
C           63.11221841271976        3.47688218867960        0.22442929604752
C           61.86069649415396        2.80824381249231        0.02718241853611
N           62.04432236997599        1.44762727347736       -0.00079101275942
C           60.65038918407104        3.46329417869516       -0.16148577670030
C           60.65851623355132        4.94263244721177       -0.23117696769654
C           61.36728740128097        5.59294671634950       -1.24559572115029
C           61.38310827738930        6.97401739252845       -1.31683070504747
C           60.68939057922660        7.71031904739633       -0.36099434330119
N           60.70887809646938        9.16202415219455       -0.42705106402740
O           61.34111312391448        9.67029121203058       -1.31659707451651
O           60.09161766925229        9.76590009030286        0.41173641333920
C           59.97917548770665        7.08194072036352        0.65768125649821
C           59.96396285395307        5.70002548631389        0.71620985163696
C           59.43583336153699        2.79977988122933       -0.28596102174252
C           58.18390550368130        3.45537506412035       -0.51920604337525
C           57.22721439952374        2.49709928578916       -0.46592484481563
C           57.90003148797758        1.26172253968530       -0.21432736086412
N           59.24853014078403        1.44708512395626       -0.14289580780859
H           56.16123589203180       -2.50303291933277        0.57284396456023
H           58.05518755571678       -4.42107226786401        0.62289867731518
H           61.88814377205671       -4.96620071203077        1.85356349274466
H           61.90050999461496       -7.44897855045404        1.91413780365993
H           59.39994840761458       -7.54873373445149       -1.56384179728423
H           59.39111309513360       -5.06597415446043       -1.63093397049022
H           63.22642231962190       -4.45535464169689       -0.42075927703426
H           65.12657952344085       -2.54359390409250       -0.43478414844014
H           65.12938739525622        2.62538844397784        0.39684171879640
H           63.23604945502051        4.54300276424806        0.32165777723823
H           61.89574395606851        5.00667349118944       -1.98820015490186
H           61.92487554980767        7.48766910794427       -2.10189256087206
H           59.45065822561424        7.67883520865747        1.39121828498465
H           59.42454079153612        5.19815826655409        1.51092134490379
H           58.06213775719050        4.51036929635206       -0.70247463736751
H           56.16104509565661        2.60227483306956       -0.58491618857954
Fe          76.63289861001300       -0.00018983204281       -0.00900518565195
C           73.22113043944890        0.00768770448248        0.01230115069938
C           73.89207084959358       -1.20233411577281        0.23540371357951
C           73.22199420533238       -2.43348200258954        0.51398388277014
C           74.17448238622346       -3.39747044417739        0.53076156132115
C           75.42115631019395       -2.74908119824801        0.25220611762558
N           75.23614879515692       -1.39471320284323        0.12169551442123
C           76.62583219215033       -3.41725308344837        0.07004916431995
C           76.62005436557145       -4.89732894694841        0.10105474683902
C           77.36564773525473       -5.58656345961295        1.06186095849486
C           77.35571630944672       -6.96915263801832        1.09906671983718
C           76.59908347024202       -7.66775723499534        0.16292647964507
N           76.58564037261374       -9.12062832127126        0.19720333200977
O           75.91562153421226       -9.69061970777408       -0.62465792227717
O           77.24481566503927       -9.66362902679227        1.04567836707152
C           75.85388552257541       -7.00044933288702       -0.80473105792383
C           75.86507365061276       -5.61769709172685       -0.82926399790456
C           77.83449047541122       -2.76283015514119       -0.13670037952067
C           79.08014284533060       -3.42804386448288       -0.37619257983430
C           80.03738705075213       -2.46847706081455       -0.38997715323735
N           78.02464440974364       -1.40506226915768       -0.06325197431222
C           79.37089990550037       -1.22349418091514       -0.17178748391409
C           80.04489549658115       -0.00716395709737        0.00300717257572
C           79.37408229982206        1.21259366304329        0.16495242332660
C           80.04404263694910        2.45763287639569        0.37217389947227
C           79.09204877745537        3.42158187880964        0.32962600844910
C           77.84569190140125        2.75835126841908        0.08865740065118
N           78.02977913604224        1.39895272358358        0.03893008917511
C           76.64083647747051        3.41554998894490       -0.13248615956181
C           76.64690722909941        4.89450660320671       -0.19722590358171
C           77.39807452966302        5.55266665733197       -1.17546982583316
C           77.40175710828717        6.93387972135039       -1.24677383939872
C           76.65312416319787        7.66266951557070       -0.32730420114006
N           76.65428780732603        9.11432864193533       -0.39714088001441
O           77.32110725264440        9.62977806757008       -1.25677614365928
O           75.98781018806595        9.71095941663962        0.40854435241848
C           75.90290175508834        7.02668426003754        0.65742158743449
C           75.90069941346303        5.64484787417955        0.71625847684593
C           75.43137338837273        2.75114840598644       -0.29376512031071
C           74.18406496531821        3.40172587471159       -0.56437443754948
C           73.22647163660751        2.44404124739766       -0.51343794089345
C           73.89441649191271        1.21351948578781       -0.22711882826750
N           75.24094431450791        1.39987943397508       -0.13819098621132
H           72.16021168706637       -2.53278329789592        0.67131063627645
H           74.05312012775985       -4.45176049457463        0.71837527599815
H           77.94116197393647       -5.03003163314628        1.79224143832260
H           77.92411460782864       -7.51286598135971        1.84402204363000
H           75.27661200952797       -7.56816019205220       -1.52451145503017
H           75.29731959213998       -5.08541649654386       -1.58341770990113
H           79.19791069090465       -4.48993210637639       -0.51759150485915
H           81.10015100134096       -2.57926920957824       -0.53214499658399
H           81.10559763320352        2.56569048862967        0.52507099548512
H           79.21336924872516        4.48519602336694        0.45411866640679
H           77.96753945407329        4.97250506447339       -1.89211155703446
H           77.97464688984459        7.45345352603240       -2.00540419221365
H           75.33244512616464        7.61764853976458        1.36383253349232
H           75.32958312626603        5.13715760632355        1.48470201521107
H           74.06525409214748        4.45318616077379       -0.76867683172201
H           72.16275418553386        2.54707736984642       -0.65436926998381
