227
 energy: -400.290201465619 gnorm: 0.000393910662 xtb: 6.5.1 (b24c23e)
Fe          28.63004582751339        0.14285882926531       -0.10823600004006
C           25.25426035918229        0.37409259228354       -0.29671335626268
C           25.90830767252085        1.20557400740351        0.58875227004606
C           25.23577097345155        2.15420072501828        1.42470514969047
C           26.18179541462135        2.71246784909345        2.21562328413347
C           27.43353263300145        2.11552171929163        1.85090467075734
N           27.25310777807301        1.19861509310391        0.85096824174082
C           28.64129341104606        2.40486031554362        2.47443226784013
C           29.84472882974018        1.83729215678648        2.08624302608468
C           31.10747352330450        2.17408228438176        2.67302841850322
C           32.05637957622688        1.51859495030291        1.96333645159628
N           30.02309910203642        0.96096291977948        1.04134132945833
C           31.37090235157693        0.77889425532340        0.94956663618197
C           32.03434867472364        0.01072370487847       -0.01431986805613
C           31.36314878030807       -0.75348522157306       -0.97590812679320
C           32.04061109504255       -1.59134043121712       -1.91631563714413
C           31.08201145448424       -2.26234089140879       -2.59804054520379
C           29.82079182610833       -1.81691923630188       -2.08556249816250
C           28.59663758019357       -2.30232006032418       -2.51754939398175
C           28.57705313982314       -3.37172023131823       -3.55383868154656
C           28.94002996357780       -3.08866854872335       -4.87693919153411
O           29.28994599260010       -1.80077315787904       -5.13342460447372
C           29.66735221849867       -1.40680784394877       -6.43708361432197
C           28.91929458033469       -4.09375135623879       -5.84346139809133
C           28.53917940699548       -5.37733832108699       -5.48170490607067
C           28.17426377170837       -5.68031258483598       -4.17865915350155
C           28.18947341030750       -4.67425991741892       -3.21305221380463
O           27.85205577521734       -4.87042354901143       -1.91160148153029
C           27.45312726142970       -6.14852396626906       -1.45944047474700
C           27.38297775513377       -1.81767276101959       -2.04651230711863
C           26.10848961951607       -2.24682404662331       -2.54451575743909
C           25.17284908711815       -1.47542199269803       -1.94301146001698
C           25.87627259580270       -0.58336778413392       -1.07098362722305
N           27.22571359447356       -0.81266389948964       -1.13075432517925
N           30.01141563353631       -0.88516581516557       -1.09258737690574
C           28.64881411701032        3.38906447902326        3.59176567501310
C           28.89868098423185        2.96802392112381        4.90464052062099
O           29.11167982668194        1.63624660864792        5.06976043090638
C           29.38181634076312        1.10714583424078        6.35202214115376
C           28.90869781674137        3.89000813934834        5.95087835220088
C           28.67554258220495        5.22962203069212        5.67909821703297
C           28.42957545713710        5.67002968851313        4.38744431007804
C           28.41372591927987        4.74765823888483        3.34172276564970
O           28.18944520553581        5.08212174755708        2.04371119545450
C           27.93640869581811        6.42480056119172        1.68257694413063
H           24.17634758018247        0.46467062633989       -0.37346538417060
H           24.17429369570627        2.34480121653574        1.40190399827890
H           26.05708908980069        3.46144562277932        2.98062008353674
H           31.23947222530478        2.83784784383349        3.51179444243524
H           33.12610804556489        1.52735940698516        2.09839184087410
H           33.11200383008027       -1.65694848945045       -2.01841728808017
H           31.20569197353236       -2.99260952286112       -3.38089828843669
H           28.85246076308860       -1.56045478351816       -7.15494122666002
H           29.89653710867992       -0.34123664373702       -6.37773059094111
H           30.55800178106900       -1.94823144906689       -6.77848311221168
H           29.19551600970248       -3.88545951129386       -6.86841594063980
H           28.52614119291570       -6.15941707091714       -6.23291319197079
H           27.88188967963842       -6.69045243581517       -3.92494477971779
H           27.23769572067925       -6.04021456684626       -0.39485621331598
H           26.54939580918922       -6.49368422759004       -1.97630979867779
H           28.25145132369698       -6.88877535269382       -1.59198249331861
H           25.96502687955675       -3.03010109757566       -3.27116310078243
H           24.10127745409767       -1.49215513767447       -2.06569211931812
H           29.52161932446921        0.03344838050811        6.21394693811514
H           28.54522121355897        1.27579206717471        7.04089585929322
H           30.29568518512449        1.53726332647595        6.77957637030774
H           29.09661039844581        3.57445343335856        6.96838725305401
H           28.68631194720423        5.94694109269817        6.49238990104770
H           28.25383808035264        6.72154979111124        4.20403391687405
H           28.78775313705923        7.07298672272193        1.92327794744823
H           27.78048454825608        6.42421428095546        0.60219816141059
H           27.03605333551934        6.81076512804115        2.17594799670542
Fe          60.60964801539114        0.05983342994836       -0.13102106223879
C           63.98327881595548        0.34234217026095       -0.33225162781853
C           63.35522329104376       -0.50440159413435       -1.22225643030529
C           64.05270858556506       -1.27767096478009       -2.20544234065015
C           63.11244628623444       -1.96238751290553       -2.89781716970104
C           61.84079734484042       -1.59149949350036       -2.34870701831541
N           62.00491296914441       -0.71999374856300       -1.30625954452606
C           60.62291896676741       -2.03258973277671       -2.85152829923161
C           59.40270025999676       -1.63949467030703       -2.32503364872539
C           58.13825316411029       -2.00821976148438       -2.88794578558538
C           57.18417318493461       -1.44021551088169       -2.11248361295040
N           59.21907006402178       -0.84536403993118       -1.21785073039580
C           57.86848984634404       -0.73488200221545       -1.07355134575715
C           57.20376022684509       -0.09633234183952       -0.01927844268322
C           57.87597904732522        0.55064133855104        1.02538384866907
C           57.20187016903582        1.13500146263729        2.14304176631860
C           58.15736358225955        1.69811969625480        2.92022680046237
C           59.41061315412633        1.47067223197553        2.26480256530606
C           60.61960311637234        1.97174358301428        2.71931345908412
C           60.62821028347307        2.80445096960614        3.95363779147231
C           60.06590978949907        4.08801684957201        3.94622072615899
O           59.53837845632997        4.49779475762771        2.76316684468095
C           58.95534797527036        5.77962638148961        2.64334129597115
C           60.07952648084400        4.86964513280193        5.10101056517190
C           60.65095108494891        4.36298902795564        6.25843379021449
C           61.21299812714955        3.09569668032239        6.28930625039018
C           61.20511364617446        2.31578868335487        5.13322037388980
O           61.72598821273657        1.06285281739974        5.06347053011978
C           62.32914909287894        0.47365220784618        6.19757823858290
C           61.82384091492496        1.75597280786384        2.06002847554482
C           63.07182390582688        2.32888262764151        2.47257376913155
C           64.01151346412398        1.88790472218947        1.60360999772649
C           63.33647890766967        1.04291351013424        0.66470793329508
N           61.99622925191185        0.98406148231389        0.94382121012306
N           59.22234170336171        0.73745702291074        1.11637143817546
C           60.62569259967665       -2.94359555028443       -4.02915162537665
C           60.22961822046105       -4.28048374831850       -3.88963781785336
O           59.87130249715224       -4.66512118664892       -2.63702739907864
C           59.45886136465424       -5.99325265569016       -2.38546323521985
C           60.22963908805902       -5.13401115540770       -4.99254498160490
C           60.61893447541346       -4.64559267068864       -6.23053616016498
C           61.01148035173804       -3.32559980047516       -6.39311337568117
C           61.01739334684849       -2.47309348401434       -5.28961246432534
O           61.37746501893184       -1.16410281808142       -5.34867408264384
C           61.78869374634063       -0.58801709993176       -6.57182162198612
H           65.05985113665722        0.44821438517390       -0.40836867605526
H           65.12415516603026       -1.28501496867205       -2.33019813700551
H           63.25173059607590       -2.65229598084808       -3.71427261920676
H           58.01041844965024       -2.61927739301292       -3.76664500105407
H           56.11209934547301       -1.49160166258602       -2.21557901050401
H           56.13546734832355        1.10541087531450        2.29971874338293
H           58.03663809003039        2.22936438640123        3.85024347729101
H           59.68487099710307        6.57318786478254        2.84576114121910
H           58.61354512854561        5.86198340608791        1.60996709186574
H           58.09744540611646        5.89545920940295        3.31672555994945
H           59.65120514715933        5.86299262551236        5.10514662183951
H           60.65910190708060        4.97016934461675        7.15698041499950
H           61.65128091036420        2.72609321046284        7.20664436781621
H           62.66595344965618       -0.51572434734641        5.88267033691960
H           63.19301756553189        1.05562859440762        6.54114064211009
H           61.61414536469687        0.36523391180562        7.02215238631342
H           63.19687005950232        2.98410063439358        3.31947415439007
H           65.06927758273495        2.09867311275037        1.58611596472764
H           59.22822425909142       -6.04261016859485       -1.31973853973347
H           60.25512093185903       -6.71158458030855       -2.61533709620260
H           58.56124205594792       -6.25084279505109       -2.96058991848747
H           59.92949871351725       -6.16871044130038       -4.89498466580538
H           60.61590450850178       -5.30877712682362       -7.08860904047197
H           61.30766659955626       -2.97108302643869       -7.37126816466859
H           60.98938361085894       -0.62437863250580       -7.32193498447905
H           62.02641536572094        0.45432785844781       -6.35149937391149
H           62.68204645013721       -1.08462733965475       -6.96965776784499
C           37.23332088028570       -0.04966393042256        0.01742101134498
C           36.00345369569504       -0.03989185971613        0.01253872106464
C           34.66129709511002       -0.02707905055511        0.00377049125676
C           33.43607772680365       -0.01198100637149       -0.00207895590603
C           38.57536544514959       -0.05514172628977        0.02037764701063
C           39.80089469066552       -0.05500586818930        0.02292668093542
C           53.23687878357565       -0.14065671154375        0.02271210259221
C           52.00631931333258       -0.14108969409583        0.02897920316585
C           50.66541882512850       -0.13487371986985        0.03290403540766
C           49.43935859784918       -0.12315618643135        0.03431927090056
C           54.57789100914201       -0.13260188601229        0.01312960093603
C           55.80370495305463       -0.12102722287585        0.00113092144971
Fe          44.62095114656162       -0.04826757948190        0.02745386930501
C           41.20192255349785       -0.05025529030901        0.02475604895050
C           41.87030749198683       -0.09261566205406        1.25454272861823
C           41.19150288370170       -0.16574036534959        2.51042247265380
C           42.14670768195223       -0.11067254414412        3.46977102037416
C           43.40379419202743        0.00064105024464        2.79397416617201
N           43.21936370541790       -0.01632365431836        1.43316630119923
C           44.61999813059470        0.14424227970095        3.44693356335350
C           45.83631829512915        0.21321837336468        2.78314868904832
C           47.09408664469134        0.39183595225216        3.44304045946086
C           48.05035609770106        0.32216749713701        2.48560500215957
N           46.02174547282813        0.07210234671417        1.42925844633334
C           47.37127230935440        0.10861595029548        1.24607415756912
C           48.03987857104816       -0.10076984891909        0.03274169577422
C           47.36839206872700       -0.27492098511945       -1.18445566169200
C           48.04451627056205       -0.48490213835917       -2.42627630966515
C           47.09132523656999       -0.48861586177789       -3.38930398031859
C           45.83792237610199       -0.28129753841332       -2.72957189771522
C           44.62584014277943       -0.16600075651363       -3.39533957423360
C           44.63284806546147       -0.19458409077569       -4.88376554591019
C           44.10006315887610       -1.28929018358199       -5.57753547737774
O           43.60348468421520       -2.29381650957537       -4.80968430906774
C           43.04304817380171       -3.44445892161234       -5.40952934267196
C           44.11106517866646       -1.31201742801378       -6.97185950480037
C           44.64870157881513       -0.23848450587044       -7.66558763224820
C           45.17924092605539        0.85634700195460       -7.00030036037407
C           45.17476433453270        0.87739438224979       -5.60598143101359
O           45.66354570305948        1.90497660290003       -4.86451336544538
C           46.22528237461658        3.03954232220593       -5.49315525456956
C           43.40922816508132       -0.03024127518557       -2.74178527038757
C           42.15271545214930        0.09268644811272       -3.41673575582275
C           41.19502722577000        0.10895027387629       -2.45850603063172
C           41.87210822096281        0.00945505693901       -1.20350695798859
N           43.22194958523291       -0.05002916875695       -1.38102154382416
N           46.02199595541700       -0.18117736330242       -1.37219550278912
C           44.61997595326159        0.21877607039671        4.93386642170484
C           45.13169435400279       -0.84141846717943        5.69420481521546
O           45.60136732178783       -1.90362956742641        4.99000999769271
C           46.12831121810957       -3.03152430543455        5.65937165956268
C           45.12695647926777       -0.77510176559043        7.08713662808013
C           44.61659289684981        0.35232203974058        7.71259218723974
C           44.10745782667878        1.41427001010947        6.98055357819441
C           44.10571544056452        1.34639735900607        5.58767014188466
O           43.63559928472585        2.33492125106627        4.78342191952451
C           43.09561854817689        3.51634229864276        5.34054180175965
H           40.12254004149040       -0.24601628541276        2.62610960135146
H           42.02293312127136       -0.13851641747426        4.54009435044534
H           47.21741501016923        0.54479196756086        4.50281375902518
H           49.12014858834043        0.40307682903896        2.59293124675496
H           49.11079570972282       -0.60527032597301       -2.53150505760891
H           47.21394984828711       -0.61746668093872       -4.45238587476744
H           42.17788178215639       -3.19074474592693       -6.03396585497012
H           42.71712182631085       -4.08611864990494       -4.58890146232636
H           43.78246315633558       -3.98194199589892       -6.01548099508601
H           43.70622777558901       -2.15388499002046       -7.51729517913713
H           44.65449517719722       -0.25555073621183       -8.74990692208690
H           45.59063119232854        1.68056119077778       -7.56737283124689
H           46.53939290863293        3.70734458393229       -4.68894162614716
H           45.49000899915146        3.55478440299646       -6.12297296928415
H           47.09829992732016        2.77120968145049       -6.10029281353971
H           42.03066638094084        0.15058951827893       -4.48600174043160
H           40.12561657163823        0.18281709357312       -2.57427110190540
H           45.37476863384367       -3.50722464110884        6.29863656330063
H           46.43143809420192       -3.73260651832240        4.87965397350544
H           47.00302754116859       -2.76654704936248        6.26548701279361
H           45.51552687030575       -1.58949656329871        7.68372409833963
H           44.61535276567041        0.40442909065331        8.79581211974211
H           43.71708145037423        2.28185189734395        7.49537229383167
H           43.84199845895103        4.05797227931460        5.93411284738536
H           42.22087565031943        3.30180915064736        5.96630713844424
H           42.78924593390232        4.13707829571328        4.49664039366733
