360
 energy: -625.710279761916 gnorm: 0.000962207115 xtb: 6.5.1 (b24c23e)
C           83.89221201025168        0.08361050905101       -0.05025298067836
C           84.50227315928662        1.32905157711406       -0.12250301396882
C           83.85239649539017        2.59474093557565       -0.16351587933953
C           84.81582301336530        3.56069205001289       -0.23506231495701
C           86.08571891464138        2.91531486978652       -0.25307583646316
N           85.84569527825717        1.57314942711890       -0.17353186393400
C           87.34993372687369        3.51144227079458       -0.31732435122632
C           87.38509668827916        4.99086708514852       -0.40793591306364
C           88.00582125801529        5.74371421963664        0.59188533731333
C           88.03664375472690        7.12454364217369        0.51807649955952
C           87.44843462831116        7.78164216312538       -0.56682200175891
C           87.47999396323867        9.20256673430511       -0.64751649982179
N           87.50557194910492       10.35123002874037       -0.71244299709586
C           86.82899764686341        7.03287481527832       -1.57181496942088
C           86.79665665991554        5.65231294007249       -1.48827063733428
C           88.56549883788630        2.82200962213265       -0.29961890552482
C           89.86099849879301        3.46300264042562       -0.43749412694188
C           90.78209034954732        2.47965106983347       -0.37196424467782
N           88.72101314568459        1.47616192711621       -0.17399985620849
C           90.04918429649572        1.23983460165420       -0.20245568042028
C           90.68560390628554       -0.00766187034552       -0.05536054091101
C           90.05059523021967       -1.25278658111810        0.10222191463833
C           90.69200997677761       -2.50944449465194        0.26533646544798
C           89.72375460671020       -3.47095286440799        0.34895828398026
C           88.45904912647595       -2.83108949914554        0.22696348273104
N           88.70806828699713       -1.49127859993013        0.09187612222772
C           87.19613078042828       -3.43269978582856        0.25662489092459
C           87.16337662770322       -4.90943529294413        0.37746341362672
C           86.53998095399075       -5.51767262471145        1.46971937278938
C           86.50826002866033       -6.89566901892659        1.58576019969981
C           87.09784912273628       -7.69586460679077        0.60249918487873
C           87.06500186439658       -9.11438245927968        0.71744894048417
N           87.03637795357764      -10.26107597382161        0.81007128025091
C           87.72052434679708       -7.09241460706047       -0.49414448461223
C           87.75388349276626       -5.71363218781139       -0.60045435910231
C           85.97922907994347       -2.74755048188764        0.17494472394455
C           84.67578132160531       -3.39380390418061        0.14923212805602
C           83.76182809019564       -2.40672360375732        0.06426898997061
C           84.50570470446887       -1.15966459729050        0.02665619947768
N           85.83789783199542       -1.40410707785354        0.08555650367043
H           82.80696293660473        0.09267440134803       -0.05275995801981
H           82.78363298109991        2.73440365390689       -0.13352358522538
H           84.66629133970858        4.62776392405927       -0.26475750519886
H           86.56947267065333        0.86267010664742       -0.15001279460999
H           88.45235537788376        5.23805284886085        1.44057053713153
H           88.51465274905780        7.70183392618421        1.30082209379689
H           86.37622529438376        7.53852944346556       -2.41667434239736
H           86.32724872655790        5.07520776642623       -2.27703165792127
H           90.02209972551020        4.51938530064382       -0.57907232790319
H           91.85554777237307        2.56135315593883       -0.43059352733041
H           91.75935032277812       -2.65177125204960        0.31276019989285
H           89.86974500001946       -4.52933134736601        0.49051903856597
H           87.98744621779284       -0.78306346592663       -0.00198789792097
H           86.09268056644785       -4.90047846433801        2.24061401624914
H           86.02818227767432       -7.35992215077506        2.43923413099133
H           88.17461462950817       -7.70935872908986       -1.26074249766420
H           88.22535357186756       -5.25029101811868       -1.45988426957723
H           84.50863956730799       -4.45844404034121        0.17869414184743
H           82.68677658141740       -2.48333118480691        0.02062473221103
C          145.18641484835032       -0.10816120321231        0.00275547369135
C          144.58154086515589       -1.30822518246464        0.35309850289460
C          145.23742153788351       -2.51358634435552        0.73089296081036
C          144.27841749625210       -3.45204277930180        0.98818137481242
C          143.00541637551129       -2.85274205638283        0.76587115825977
N          143.23907465290063       -1.55938412991511        0.39464953340141
C          141.74389746729531       -3.44047383285340        0.91274944020322
C          141.71699946043825       -4.87107934222805        1.30068723127605
C          141.10581804245797       -5.27077993242486        2.49152302513884
C          141.08024107998426       -6.60446850164283        2.85758237701518
C          141.66421540541091       -7.56943172283959        2.03146553075574
C          141.63652951689855       -8.94349484193279        2.40258040975064
N          141.61468066862767      -10.05457299224316        2.70111987605067
C          142.27523916440109       -7.17505832178293        0.83749752780171
C          142.30233369211857       -5.83876133810228        0.48077856925385
C          140.52501429037500       -2.78618771925550        0.71577649193621
C          139.23137271704985       -3.43916436384359        0.80660095585773
C          138.30684239356239       -2.49262478936204        0.54359795796622
N          140.36462961334848       -1.47547210303010        0.38624714159070
C          139.03603660632311       -1.26591109733515        0.28526741706918
C          138.39534795615256       -0.05298428419774       -0.03526095622076
C          139.02504182797227        1.16412089303731       -0.35345137490510
C          138.37703889025096        2.39795738281144       -0.62721993462404
C          139.34065478411918        3.33604298057765       -0.87347307898769
C          140.60882649164236        2.70055565050985       -0.76550366500079
N          140.36618248369552        1.39171700480726       -0.44329447321031
C          141.86977331448477        3.28672769590175       -0.92073132533098
C          141.89791572731372        4.72284111438689       -1.28494332805202
C          142.50652439989753        5.65332042290096       -0.43886872353817
C          142.53060738802924        6.99627417549858       -0.76888463328476
C          141.94811321824014        7.43554222872192       -1.96158822135057
C          141.97158958542201        8.81689202020894       -2.30477606342626
N          141.98979767753337        9.93412241202464       -2.57977820484235
C          141.34157888497666        6.50816293045634       -2.81395313139974
C          141.31567643611410        5.16736173973950       -2.47442749038523
C          143.08922009424057        2.62163778284142       -0.75340136969643
C          144.39112151784514        3.23026757570751       -0.98098288255212
C          145.30858179161481        2.27713829088165       -0.72266853261856
C          144.56858409163107        1.08531291755762       -0.34614087797776
N          143.23505462287889        1.32714629419059       -0.38517216391645
H          146.27170677562569       -0.11279147969292        0.00506931844015
H          146.30698204633225       -2.63211266349538        0.79905006982855
H          144.43292089441283       -4.46830874818941        1.31256561014985
H          142.51177700008151       -0.88385358272137        0.18503976827093
H          140.66234469570281       -4.52399504716874        3.14034415161507
H          140.60913988656498       -6.90612115950695        3.78574924378980
H          142.72506640225021       -7.92066340847851        0.19236881859434
H          142.76464667667707       -5.53917909472425       -0.45306575697668
H          139.07357678121102       -4.48304455727685        1.02422306957385
H          137.23412046579961       -2.59475462214755        0.50681579698997
H          137.30910303304842        2.54407805381043       -0.62223743483412
H          139.18923617117298        4.37932828876538       -1.09738417779988
H          141.09078742955398        0.70020524777678       -0.28076487854595
H          142.94756659039999        5.31830798054875        0.49310236545697
H          142.99858130087796        7.71273192052300       -0.10396114683180
H          140.89358634452512        6.84418911934010       -3.74176473722767
H          140.85643971638262        4.44999725881418       -3.14526344355285
H          144.55486749465641        4.24418331788314       -1.30875248624861
H          146.38382738146223        2.34124201639599       -0.77964369380391
C           92.09656140179899       -0.02402921306188       -0.06148831774252
C           93.31297623794863       -0.04365702972523       -0.06382691097446
C          103.00915193540439       -0.08251727639162       -0.06699069146424
C          104.22763340924836       -0.07713475566436       -0.06154289008161
C          113.93434630489800       -0.03660974308673       -0.03657028959830
C          115.15295947256169       -0.03508593295386       -0.03869675928428
C          124.85858054210578       -0.03752897595731       -0.03788733891156
C          126.07691275513758       -0.03521499602206       -0.03696069799267
C          135.76878346120637       -0.03334058663693       -0.04025170605565
C          136.98548042762638       -0.04343431377569       -0.03889309271649
C           94.72294209895023       -0.05562029353790       -0.07172654328545
C           95.35348375844760        0.86462096397345       -0.92913549105534
C           94.71553537178575        1.81122275200883       -1.77177830683258
C           95.68500113277229        2.46045703595224       -2.48612852252395
C           96.94392818121521        1.91842319618394       -2.10901511500166
N           96.69450478399654        0.97258378665756       -1.15193113311938
C           98.20300774237120        2.25940080691210       -2.61938287904944
C           98.22423697716130        3.26174844666321       -3.71144270456072
C           97.55078396797536        3.02218038069740       -4.91171321968388
C           97.57255425312118        3.95722239617711       -5.93094130580279
C           98.26725492243261        5.15906157143494       -5.76509766405581
C           98.28763126413619        6.12530599676619       -6.81036191061598
N           98.30201188016103        6.90488568080394       -7.65660581225544
C           98.94157323807048        5.40464051480230       -4.56528022821877
C           98.92062760198944        4.46255444438464       -3.55282313266922
C           99.42348574423980        1.73431399011766       -2.19058565455080
C          100.69629222859379        2.03461226134959       -2.82083624292337
C          101.63662760065921        1.37461776335344       -2.11355387127972
N           99.60983525313596        0.88409398292173       -1.14340060997779
C          100.93879676762694        0.67165513060716       -1.05630639933623
C          101.60202892633892       -0.08814051894585       -0.07040053646004
C          100.96737709634351       -0.85935787871468        0.92335351018577
C          101.59894465128700       -1.58364847378269        1.96632798796433
C          100.62850490578114       -2.23755005280939        2.67501410430491
C           99.37340860006667       -1.93333538036419        2.08144610210067
N           99.62723090810201       -1.08224437467838        1.03934064517388
C           98.11476324964484       -2.40284318383070        2.47717135366039
C           98.09769982506783       -3.38738957963687        3.58541716374622
C           98.76254397891178       -4.60960772448356        3.45944560650708
C           98.74412036266041       -5.53177451322986        4.49039430773525
C           98.06219233979711       -5.24367363021636        5.67630661327492
C           98.04298586530072       -6.18910031607789        6.74047340684242
N           98.02687695835380       -6.95214949346987        7.60161106021443
C           97.39900816807047       -4.02008606586960        5.80941769389489
C           97.41634803468611       -3.10537860092746        4.77206578136396
C           96.89171516397228       -2.01740049961784        1.92388606994026
C           95.61181035558624       -2.57881946490183        2.31813871158339
C           94.67195426095476       -1.92325142696326        1.60617104109670
C           95.37868453850744       -0.97296015710088        0.77073211100164
N           96.71066265410283       -1.06704488115077        0.96750994735476
H           93.65065176584608        1.96979126707208       -1.82155998253595
H           95.54176118991050        3.24957031663131       -3.20597902567108
H           97.40844836232813        0.42725789624630       -0.68065578466649
H           97.02288730956712        2.08540322391636       -5.05067172551262
H           97.05311966838086        3.76103733633316       -6.86160534556345
H           99.47883203368637        6.33629191626164       -4.43196379419012
H           99.43492987180359        4.66120419553854       -2.61935514643919
H          100.82914388911531        2.64956359155671       -3.69609087687961
H          102.69996329876068        1.33708096272429       -2.28421939156540
H          102.65958379155356       -1.59025166459046        2.15445890417134
H          100.76770666247003       -2.86457272143959        3.54039727435186
H           98.91559162581007       -0.67340711914872        0.44311667176915
H           99.28119347412259       -4.84292890592987        2.53633026129661
H           99.25610148086329       -6.48074793458184        4.38199069459630
H           96.87296720416209       -3.79155318294893        6.72890115836834
H           96.91134983344998       -2.15259066055760        4.88363994450578
H           95.47293777255193       -3.37406850214350        3.03238840842702
H           93.60193763275458       -2.05384776495715        1.62615138083265
C          105.63441463489352       -0.06795329416362       -0.05934237997069
C          106.26620643481351        0.89773290478654       -0.86826626925544
C          105.63524038052158        1.91247205811812       -1.63126676349512
C          106.60500747414525        2.58522340514954       -2.32394443037292
C          107.85808262999431        1.99524076102379       -2.00634404448528
N          107.60548996642105        0.99735230489533       -1.10403666830088
C          109.11333888432530        2.33888964506243       -2.52539005136344
C          109.12838001961917        3.37531179946430       -3.58440493609236
C          108.41464444682536        3.19106745598934       -4.77130319625617
C          108.43135017614934        4.15697667977275       -5.76133273076789
C          109.16096391649295        5.33545022270337       -5.57873083131678
C          109.17821809832371        6.33266494739459       -6.59455239211620
N          109.18934994775491        7.13945516487945       -7.41497064228614
C          109.87456064193405        5.52649835908809       -4.39170155593396
C          109.85882202726232        4.55351863217655       -3.40889911769157
C          110.33472707063711        1.78977672278520       -2.13037272194591
C          111.60105676197965        2.08768706577523       -2.77450602775670
C          112.54684405665411        1.41796935270935       -2.08338916695760
N          110.52917064521529        0.92844014181709       -1.09403857606521
C          111.85861756170800        0.71304596947170       -1.02152693146032
C          112.52783308786871       -0.04093697582529       -0.03531232968849
C          111.89447119358728       -0.80683893550107        0.96392448336987
C          112.52352380874542       -1.51553481154387        2.01850979629377
C          111.55373896855069       -2.18163033300192        2.71754368696053
C          110.30272259156457       -1.90204849433782        2.10430857742598
N          110.55628834983482       -1.04701330599870        1.06571382487087
C          109.04876589809088       -2.41347343851706        2.46308638670833
C          109.03254911603887       -3.41992443933612        3.55060779367470
C          109.75562629189346       -4.60947376641337        3.43139411563674
C          109.73765084532683       -5.55009161368656        4.44545372841343
C          108.99734723700246       -5.31396087433570        5.60768397681636
C          108.98077625886363       -6.27780899465116        6.65523253373870
N          108.96564656234349       -7.06020825235248        7.49886635159339
C          108.27417961526578       -4.12406904741597        5.73353000085289
C          108.29126765918311       -3.19102810563279        4.71274507609862
C          107.82890882509720       -2.05563251004799        1.88546777959653
C          106.56528515106217       -2.69492160052602        2.20438003691080
C          105.61956945312917       -2.04435846241991        1.49508300190942
C          106.30516228489761       -1.01215265878916        0.74510075885306
N          107.63354266972446       -1.06362178390210        0.97386900751791
H          104.57594167562625        2.10801619519620       -1.63682553141118
H          106.46592123689231        3.42386702314856       -2.98631585867441
H          108.31612730830838        0.41610422311348       -0.67260658050451
H          107.85922710472586        2.27245847313030       -4.92375593933355
H          107.88107257707630        4.00302037156761       -6.68215437576026
H          110.43835490137789        6.44031000544623       -4.24514825595096
H          110.40357521666326        4.71026253900560       -2.48478005720882
H          111.72609081953320        2.70718578096239       -3.64772829868351
H          113.60800251323484        1.37691134362870       -2.26656117014455
H          113.58151481162511       -1.50411449190341        2.22093951527421
H          111.69135007429128       -2.80164832780906        3.58820520122240
H          109.84693646776867       -0.64966120336503        0.45914869614079
H          110.31957530906450       -4.80356547022895        2.52593153128407
H          110.29542180441130       -6.47348080106720        4.34219478172926
H          107.70208785686607       -3.93590051088296        6.63447320611117
H          107.73902222935651       -2.26414994963186        4.81881338427609
H          106.44210388254869       -3.53848323775065        2.86404363516986
H          104.56027702303990       -2.23807947386755        1.45446227782649
C          116.55951000216011       -0.03456760076565       -0.04190576494009
C          117.19400744954899        0.91631697696952       -0.86610759888337
C          116.56520577213011        1.92212751657450       -1.64272682916341
C          117.53593248381009        2.58047661214689       -2.34768586190220
C          118.78748649187717        1.99052621260891       -2.02391447104271
N          118.53299761275140        1.00685358005794       -1.10648220110137
C          120.04293303346552        2.32338957748410       -2.54906840141787
C          120.05929201150902        3.34422106731842       -3.62318938153735
C          119.34674316426013        3.14160104937006       -4.80780848226337
C          119.36504270149842        4.09171080466129       -5.81292154361772
C          120.09492344351719        5.27262521113458       -5.64798806058908
C          120.11282293088342        6.25433481364071       -6.67878897316783
N          120.12861721339355        7.04898336963736       -7.51085111719662
C          120.80708817788782        5.48214749487754       -4.46322851923854
C          120.78985233168437        4.52473853845843       -3.46520189188220
C          121.26343764857292        1.77691287037611       -2.14750205692196
C          122.53080946088315        2.06688567134034       -2.79324053134373
C          123.47519763272138        1.40332652976132       -2.09428928020167
N          121.45553400663844        0.92556102118076       -1.10271070117680
C          122.78466373351063        0.70872543136969       -1.02702837518858
C          123.45171051509351       -0.04193764405879       -0.03723062411110
C          122.81808455680417       -0.80458053393711        0.96392752594063
C          123.44727010708841       -1.51433943066735        2.01781762327311
C          122.47649742302889       -2.17424943018259        2.72134225246730
C          121.22473052818604       -1.88903636219654        2.11223219392325
N          121.47900615349113       -1.03836270082721        1.07042748820813
C          119.96874617006908       -2.38932288587973        2.48001579490654
C          119.95138133015378       -3.39089235182616        3.57214179813469
C          120.66229461909914       -4.58769565042481        3.45247991866386
C          120.64362483528782       -5.52365398277153        4.47083810994575
C          119.91505633369977       -5.27538203084320        5.63791996601819
C          119.89677094167931       -6.23452613927102        6.68974766350729
N          119.88202922897773       -7.00889279825173        7.54075070290783
C          119.20418115155674       -4.07813831885550        5.76424847327221
C          119.22174745076290       -3.14982860224496        4.73914750665533
C          118.74847029386682       -2.02370457984186        1.90860409188181
C          117.48103849500092       -2.64855684452869        2.24090449275445
C          116.53669860871874       -1.99460747816582        1.53294621057579
C          117.22700566031793       -0.97513617326975        0.76981286456373
N          118.55609733973442       -1.03681129167349        0.99051437842777
H          115.50655370058539        2.12123112040105       -1.64905159235305
H          117.39873101700320        3.40952874196588       -3.02241831918602
H          119.24226004731527        0.42860950549655       -0.66877803655445
H          118.79101809337179        2.22094847402611       -4.94615147840928
H          118.81579542836869        3.92355630196489       -6.73187068798555
H          121.37094176704831        6.39800287367533       -4.33031459107094
H          121.33360739825973        4.69584970272516       -2.54304610186643
H          122.65747755483331        2.67767111520829       -3.67233778870218
H          124.53659624927397        1.35919843353724       -2.27586641464617
H          124.50605335494318       -1.50790860146083        2.21661436140162
H          122.61385308390196       -2.79344424759099        3.59263485902162
H          120.76953715129781       -0.63859500060780        0.46559199765243
H          121.21717371252937       -4.79098907955995        2.54344042994128
H          121.19167774873732       -6.45280340528337        4.36719381743301
H          118.64117924301223       -3.88060255193215        6.66890241527684
H          118.67912156358138       -2.21732004847430        4.84548157440134
H          117.35430290650125       -3.48551859323041        2.90825738342970
H          115.47531925836974       -2.17839596634762        1.50130011672965
C          127.48422213440325       -0.03102729967356       -0.03824175799585
C          128.11321940505388        0.96218064234522       -0.81472657169919
C          127.47324164549433        1.99305869967530       -1.54903777836300
C          128.43948955297392        2.71349055061820       -2.19633884421405
C          129.70015531301297        2.13982509276506       -1.87757814350293
N          129.45354949486534        1.09644900297358       -1.02587618107357
C          130.95739603529185        2.55518919870093       -2.33427361557201
C          130.96629754081417        3.65640915837035       -3.32679838236843
C          130.31604319867068        3.50699561124565       -4.55435983489654
C          130.32829139569529        4.52775884528556       -5.48775378225823
C          130.98944966144421        5.72694454520697       -5.20603956713167
C          131.00200064835042        6.78012713176604       -6.16383225600983
N          131.01202763323212        7.62923809381432       -6.94060854255205
C          131.63757666606568        5.88363275883031       -3.97723194409690
C          131.62645684068505        4.85629802644425       -3.05101311250251
C          132.18452793519552        2.01902850507825       -1.93852276472648
C          133.46358858105299        2.42786087350029       -2.49136734076863
C          134.40563238577687        1.70936600997935       -1.84601204542568
N          132.36900076885757        1.05275912350134       -0.99838424755948
C          133.70100256904763        0.85783683196431       -0.90837762651862
C          134.35982267141702       -0.03037848758315       -0.03700925919742
C          133.73474879040614       -0.92668532311461        0.84973273041065
C          134.38003390571279       -1.77908856476941        1.78245764379812
C          133.41469836751719       -2.49111328430668        2.44044033460880
C          132.15098662846148       -2.10061489749612        1.91962006746852
N          132.39424333878026       -1.14299162673800        0.97244111666377
C          130.89155421171509       -2.58987678034816        2.28873246451146
C          130.87355980480814       -3.66783306228024        3.30621592375257
C          131.52480429779169       -4.88164645774234        3.07418813472341
C          131.50971763133677       -5.88314119788925        4.02845886033737
C          130.84431741854934       -5.68549683695607        5.24196692775492
C          130.83250254157261       -6.71124746417005        6.22904133888010
N          130.82357739283913       -7.53966555375923        7.02762373179372
C          130.19093624729229       -4.47246979913117        5.47938225488620
C          130.20491319625827       -3.47799698983400        4.51833441149458
C          129.66752464372581       -2.14677068274663        1.78403541999852
C          128.39261862341317       -2.75938568255748        2.11067073694904
C          127.45045499722735       -2.05145044035798        1.45408362796001
C          128.14908307231880       -1.00903639932456        0.72970764340634
N          129.47985359862597       -1.10589962504127        0.92648428899174
H          126.40996052400853        2.16542913678040       -1.56665735633871
H          128.29372454537767        3.57465834076792       -2.82766550672942
H          130.17013820297282        0.51116852945659       -0.60984101235455
H          129.81415222667269        2.57341442172996       -4.78268251025012
H          129.82789062917374        4.40105173034772       -6.44064705814461
H          132.14736861914645        6.81345784892336       -3.75374551137855
H          132.11991648246851        4.98615572224957       -2.09448990960130
H          133.60051295763125        3.15256853812996       -3.27745023776700
H          135.47486825426847        1.72598218076785       -1.98387866792987
H          135.44594835032674       -1.82766912786391        1.93461462938109
H          133.56384519601707       -3.21437904144741        3.22531627193028
H          131.67525318016490       -0.65811347739715        0.44604267979225
H          132.03027447828217       -5.04512304910299        2.12905495010498
H          132.01232060900122       -6.82428902977049        3.83860610758099
H          129.67606679003649       -4.31462937662039        6.41981301885459
H          129.70774803174717       -2.53392847027500        4.71049505024718
H          128.25969140240889       -3.62551119788913        2.73841219196289
H          126.38486143934013       -2.21107496967007        1.43415231106732
