197
 energy: -376.213630547863 gnorm: 0.000696755151 xtb: 6.5.1 (b24c23e)
Co          33.48081938990478       -0.05265713243825        0.00680429335378
C           30.10984184197570       -0.14845844175470        0.03758490433097
C           30.78498622521110       -0.43667787670685        1.20405267966106
C           30.13935600735856       -0.77504555349118        2.43601800415038
C           31.09883874227436       -0.77425649980996        3.39043670263626
C           32.33269857830396       -0.44203033120519        2.73935857541188
N           32.13607115493419       -0.28446623074365        1.39096554240369
C           33.51086158201666       -0.14226767451686        3.40915585772929
C           34.67691591719520        0.18878568929605        2.73599320802300
C           35.92114639608683        0.48114116036984        3.38207998691846
C           36.86704045551725        0.51542677688355        2.41321980133523
N           34.85526600519509        0.09503242694048        1.37420489111786
C           36.20064172732438        0.24117767899306        1.17956001709889
C           36.87141865281421       -0.00318931423382       -0.02092082071444
C           36.18430153507250       -0.24543666195986       -1.21201580163984
C           36.83104293479663       -0.51372357082235       -2.45725744838840
C           35.86988389135122       -0.47165597836547       -3.41134813207235
C           34.63863582560391       -0.17199734610210       -2.74463704619625
C           33.44557142389457        0.10711827170550       -3.39581437050639
C           33.43353971426445        0.18371840030986       -4.87337373439688
C           32.61107472561719       -0.66352450752379       -5.62103273699168
C           32.60024314133489       -0.58601894350246       -7.00138190035458
C           33.40763931744003        0.34303930164236       -7.66039265347745
C           33.35634718852805        0.39237368089683       -9.14121908718730
O           34.17190538447877        1.31346162974677       -9.67637682270679
O           32.65818404681895       -0.31542416661019       -9.82157725666772
C           34.23067230855214        1.19113808008985       -6.91873830941008
C           34.24400830717194        1.10819151510721       -5.53751166088065
C           32.26162855602428        0.30859325416265       -2.69898407674621
C           31.00579458179320        0.62778815157893       -3.31330621698925
C           30.06336844212214        0.54095507806489       -2.34545533953342
C           30.74574369549584        0.18746356684385       -1.13804114436539
N           32.09941260772621        0.11067938587442       -1.35141211714630
N           34.83525275626562       -0.10060777300801       -1.38516425566220
C           33.52295814007063       -0.18715557004773        4.89073373646966
C           33.35833071060471       -1.40377398807095        5.55689219440354
C           33.36946515642176       -1.44810656879546        6.93886584897205
C           33.54017644379933       -0.27645737861242        7.67863963010163
C           33.54066299811389       -0.37516543780577        9.15799868245997
O           33.70571557644190        0.80454439753973        9.77501746202856
O           33.40745475494052       -1.40375779867351        9.77085331551101
C           33.70316945447311        0.94080962005598        7.01684655155619
C           33.69688487706917        0.98244718239676        5.63322020123269
H           29.02676921141065       -0.17799218642270        0.04799242125585
H           29.08275676891397       -0.96375188295981        2.53992772270162
H           30.99083457133523       -0.95806985972382        4.44702907540431
H           36.04723985338699        0.61645842827416        4.44384203844547
H           37.92649217294359        0.68942025044011        2.51051858725230
H           37.88725981453812       -0.69748222555142       -2.57064490936420
H           35.97329759743481       -0.62864325597003       -4.47264188919712
H           31.99309840112744       -1.39450509535111       -5.11216096425834
H           31.96776728496752       -1.24337338597141       -7.58786704345722
H           34.07899094618827        1.28198108821216      -10.64237845587948
H           34.85687056069811        1.91548452766651       -7.42599482509463
H           34.87377418100868        1.77609573508663       -4.96067306195298
H           30.87559902949463        0.87954874955626       -4.35327443923038
H           28.99874039729379        0.69384054411235       -2.42289297596639
H           33.23602807753596       -2.31524474776924        4.98302103394898
H           33.24704182216342       -2.38913749338641        7.46377944825323
H           33.69400439760787        0.65389469442056       10.73419615014524
H           33.83281304381093        1.85268503203791        7.58765682224264
H           33.81229139970276        1.92954839202105        5.11845971547361
Co          65.37997323105276       -0.03969357040388       -0.03984465922466
C           68.75055169088138       -0.13026777371073       -0.08636988483508
C           68.07383664999745       -0.28380323892569       -1.27727984745813
C           68.71748184152092       -0.47943895814339       -2.54079850219396
C           67.75624781620928       -0.37073667024489       -3.48731272015646
C           66.52360675302018       -0.11487819719342       -2.80046344840874
N           66.72242288052976       -0.11199472146854       -1.44339205970292
C           65.34463205893941        0.26094140936518       -3.42976893901604
C           64.18050060559455        0.51594810834541       -2.72129017128024
C           62.93630245849489        0.88501964751889       -3.32694163598458
C           61.99232786456295        0.81182953686808       -2.35827702992174
N           64.00398180058390        0.26685797252011       -1.37887585532600
C           62.65993270522327        0.39488813493853       -1.16589470781381
C           61.98979300989537        0.01317754872291       -0.00085297624081
C           62.67807687310929       -0.37053965508868        1.15235092218830
C           62.03246901769590       -0.78451008754798        2.35761301474437
C           62.99525321593163       -0.85915114971263        3.30811956174808
C           64.22600909702375       -0.48374649517139        2.67988334374242
C           65.42001326444436       -0.28337716593194        3.35757715007980
C           65.43440344481213       -0.38184840496171        4.83375121657613
C           66.25954808741805       -1.30981721613712        5.47503906387641
C           66.27250941645021       -1.39551384242645        6.85489982281392
C           65.46474973098272       -0.55202236432069        7.61997088926510
C           65.51851943766670       -0.67733809892656        9.09634440826156
O           64.70304330581737        0.17338114436701        9.73730453948388
O           66.21863674845210       -1.45952549711066        9.68729875108288
C           64.63907925858162        0.37606761933358        6.98472233206792
C           64.62351661575011        0.45644261429247        5.60337081278604
C           66.60280429847460        0.00093983812938        2.68764722120068
C           67.85898194821881        0.24821445471295        3.33354201689197
C           68.80002665674692        0.27764001671133        2.36082715508400
C           68.11628784520981        0.06661174722500        1.12130207073610
N           66.76314963632993       -0.03741840855995        1.32615285666632
N           64.02729307234837       -0.25022021794461        1.33888803577706
C           65.33085829462838        0.38603321673373       -4.90669320229733
C           65.49100660115589       -0.74673149165505       -5.70806102631608
C           65.47940698396400       -0.63218279405220       -7.08599790558267
C           65.31297295436413        0.61721661075465       -7.68636993769014
C           65.31281527624685        0.68899172507153       -9.16730729913631
O           65.15501004157737        1.93265819452435       -9.64474700667938
O           65.44106130425021       -0.26316424293890       -9.89416755510292
C           65.15415003821764        1.75107261637426       -6.88922590613932
C           65.16059240936973        1.63366058918650       -5.50996847185526
H           69.83364844120895       -0.15703269422091       -0.10179157651085
H           69.77393427857810       -0.65464214876383       -2.66732678101768
H           67.86234483757947       -0.43321722738381       -4.55814226457761
H           62.80889985478176        1.14155474632449       -4.36595246812452
H           60.93343187004663        1.00005247799736       -2.43242765305005
H           60.97601077576865       -0.97821517546767        2.45017038802436
H           62.89315149720701       -1.14209573298514        4.34309499434847
H           66.87784696292445       -1.97460054220100        4.88263622414615
H           66.90704185200941       -2.11623362513278        7.35892439331807
H           64.79734037753641        0.02886736775230       10.69281514193420
H           64.01257407695432        1.03445343622222        7.57471912028091
H           63.99181325637361        1.18660931865502        5.11018797563172
H           67.99033494772620        0.37643303176092        4.39569220085804
H           69.86448627838898        0.42253438005137        2.45422400839729
H           65.61042269444822       -1.71840260603758       -5.24259084186949
H           65.59840970822600       -1.50719345009855       -7.71549213480784
H           65.16731423825223        1.89326571716346      -10.61487887133600
H           65.02773370574900        2.72286636832607       -7.35158406005930
H           65.04849148384267        2.51579471617700       -4.88983915212183
C           42.07307695370331        0.00427274713790       -0.03156454749003
C           40.84452768088660        0.00533657292179       -0.03588641603923
C           39.49972116839622        0.00349142070637       -0.03381729684664
C           38.27595947366265       -0.00133703114393       -0.02995116692381
C           43.41751573554083        0.00555989639463       -0.02856384315685
C           44.64171775726966        0.00672384509777       -0.02456852492793
C           58.01802160540199        0.01764113521777        0.02162293588620
C           56.78915372072673        0.01595426043014        0.01959648590857
C           55.44538694185029        0.01441909715903        0.01640662603953
C           54.22092505220141        0.01172449848933        0.01154021969822
C           59.36210809158813        0.01785062877892        0.01850430426273
C           60.58618599950267        0.01643074125679        0.01049171136279
Co          49.43187049115977        0.00713829818814       -0.04834279871318
C           46.04440157804264        0.00698258847609       -0.02064668621023
C           46.72901108554846       -1.17861755668678       -0.30640638552076
C           46.09159312308006       -2.40937375437479       -0.65031258156962
C           47.04854754798898       -3.36922683028263       -0.60351676000323
C           48.26515211449606       -2.72046809447351       -0.21885408628638
N           48.06867387091668       -1.36456460667403       -0.11021516670374
C           49.43338434454382       -3.37879646520120        0.14469877606986
C           50.59920682701825       -2.68792768058796        0.44861634576278
C           51.81697969741588       -3.29855966861370        0.88888184983793
C           52.77241588540266       -2.33732323700225        0.84967400912189
N           50.79200759653145       -1.34417454226746        0.22880646701132
C           52.13303450444835       -1.14271938550576        0.39776152991056
C           52.81899237158939        0.01087667807970        0.00475712474750
C           52.13655069169500        1.16364520903312       -0.39783030969288
C           52.77730492431247        2.35648357870468       -0.85180569509606
C           51.82079279331807        3.31655858840605       -0.90226847132183
C           50.60096873514461        2.70681973257892       -0.46700753150001
C           49.43078971917252        3.39605738394059       -0.17518165654947
C           49.42978528732685        4.87280216595644       -0.24785657623265
C           50.32720403245106        5.61912610787054        0.52098277072116
C           50.32271463984980        7.00000114517073        0.45411235244627
C           49.42589766710265        7.66077306186102       -0.38737057092385
C           49.46221643824972        9.14278220005528       -0.42712646589879
O           48.55970716527477        9.67925009569801       -1.26168302692002
O           50.21865999495540        9.82155615686078        0.21925758356481
C           48.53044848815476        6.92047039174136       -1.15971992774415
C           48.53196075315716        5.53864204233642       -1.08652617935098
C           48.26184249152347        2.73628425394889        0.18268671817441
C           47.04122979124526        3.38531396109453        0.55472382408778
C           46.08572307072130        2.42433892550107        0.59927227355909
C           46.72773854650536        1.19261125348381        0.26650323644823
N           48.07038284943038        1.37799593358288        0.08890572255311
N           50.79585255323721        1.36689429614413       -0.22998510489666
C           49.43602001954389       -4.85608699121806        0.20603816175895
C           48.53380608909008       -5.53230906878371        1.03197285790719
C           48.53834755368274       -6.91380256795282        1.08613431638971
C           49.44003805482245       -7.64545003930895        0.31108012800832
C           49.40178510534648       -9.12551938004674        0.39856186756696
O           50.30708469388687       -9.73252152944879       -0.38299736065274
O           48.64039592027330       -9.74532223643610        1.09628352635042
C           50.34144814961672       -6.97540183402184       -0.51644667231373
C           50.33987994906561       -5.59249890180532       -0.56439794703962
H           45.04429660450128       -2.51228069927676       -0.88422245426602
H           46.94860396986050       -4.42293105301799       -0.80663867682168
H           51.91839794095020       -4.33041185636475        1.18317052127157
H           53.82036905070909       -2.41732715291556        1.08960977903947
H           53.82632369474483        2.43649819754432       -1.08693215456131
H           51.92262879730209        4.34654961163439       -1.20303008930702
H           51.01517599166908        5.10846916260864        1.18508136806128
H           51.01197310327941        7.58550334984124        1.05255497039990
H           48.64710124997169       10.64580261428682       -1.22960459614609
H           47.83549558488695        7.42920752371204       -1.81716608087007
H           47.84528209725203        4.96313676333771       -1.69691544138030
H           46.93800956164993        4.44025826095115        0.74989566377010
H           45.03620441521587        2.52640917456593        0.82344976220674
H           47.84165068792077       -4.96566959321711        1.64426890222967
H           47.84495191709449       -7.44498896490558        1.72890735753370
H           50.21740731648782      -10.69274434285938       -0.26986033041491
H           51.04070784462681       -7.53952712609784       -1.12216235603343
H           51.03086870148523       -5.07237701393783       -1.21815379904356
