258
 energy: -495.456453183628 gnorm: 0.000885519303 xtb: 6.5.1 (b24c23e)
Ni          47.54687040726522        0.17202598591315       -0.54997602762619
C           44.15772820112058        0.19930012532825       -0.57822689863321
C           44.81634282854241        1.40996823094723       -0.52262825454695
C           44.15020492393396        2.67657435585507       -0.50301979064685
C           45.10577483233566        3.61485922517920       -0.30711259173968
C           46.35535574886516        2.91938074167068       -0.20085740476625
N           46.17193085622579        1.57124576883676       -0.37759127863692
C           47.56664366233131        3.53395303315041        0.09165829077326
C           47.57474357141208        4.98945251984554        0.37205119724812
C           46.84547638164673        5.50946599043626        1.43756803887268
C           46.85076393138806        6.87959574430521        1.69611206997417
C           46.05134322932068        7.37346921622172        2.84574389935557
O           46.12889333470844        8.70043703064919        3.02130983452440
O           45.38746207343151        6.67061642229627        3.56381356474199
C           47.58812595547594        7.74167568410901        0.88464171478836
C           48.31363344494048        7.22651190360891       -0.17808667122510
C           48.30924569015787        5.86271119268142       -0.43406595255433
C           48.77120534588848        2.84293245078628        0.11315406681622
C           50.03120995128460        3.44027184794092        0.43742772655280
C           50.98007653608082        2.50026584935117        0.20882182413029
N           48.94389797432796        1.52690020457311       -0.25184575676910
C           50.29671801199341        1.32733844492564       -0.23448804201274
C           50.95388638447836        0.17078286321892       -0.66489686756403
C           50.26995942202080       -0.99838602923258       -1.00827025140009
C           50.92473470655839       -2.19431981419509       -1.43366664297152
C           49.96792339519646       -3.14918231055817       -1.52678053955637
C           48.72997877709045       -2.53178142607033       -1.15809376460414
N           48.92255118214521       -1.19805512530944       -0.87958854253883
C           47.52280454377166       -3.21198171281017       -1.06141075071445
C           47.51728699539328       -4.68046893928729       -1.26619427789514
C           48.25106932050786       -5.51472682234227       -0.41993909363868
C           48.24432383543154       -6.89040846591970       -0.60396215849684
C           47.50884413679656       -7.44961532145263       -1.63554900449483
C           46.77442011531579       -6.62601505383395       -2.49013227702505
C           45.99961898430337       -7.26299785103776       -3.58451872855367
O           45.32386748937341       -6.38808411017433       -4.34375366787892
O           45.96359771106124       -8.44913615655428       -3.79019668433286
C           46.77920333678317       -5.24510365867580       -2.30418450352379
C           46.31928689785876       -2.56957559597722       -0.79941032483417
C           45.05682692414285       -3.24060965835222       -0.68793414794860
C           44.11070299735496       -2.27923145824970       -0.57434818355326
C           44.79664702946123       -1.02347887639417       -0.59365942318745
N           46.15239363608195       -1.21134548472850       -0.69418253794013
H           43.07419933556594        0.20860920440684       -0.59505680731124
H           43.08656397169355        2.80952946731088       -0.62015981723241
H           44.98837339890723        4.68431751351011       -0.24227474709479
H           46.27682933614918        4.85290028908523        2.08700680601141
H           45.58247781975152        8.94292846701182        3.78650821120547
H           47.58948674639331        8.80603131609382        1.08597506548838
H           48.88579474919735        7.89116112065081       -0.81544685707021
H           48.86710828341366        5.46827650585069       -1.27602219203527
H           50.16329950282781        4.44810188057592        0.79575747965293
H           52.04861456173050        2.57830588155115        0.32853602238249
H           51.98249719488466       -2.27871285705681       -1.62397300647490
H           50.07898034085249       -4.17885365397064       -1.82519686492482
H           48.81765788501644       -5.07937018994314        0.39556084173785
H           48.81484843391989       -7.52590284229588        0.06364967062755
H           47.49218736722082       -8.52211161614257       -1.79316162017566
H           44.84718241914465       -6.88094451920979       -5.03128428799317
H           46.21975740495592       -4.60680140338192       -2.97777555310513
H           44.92408930903942       -4.31021523852464       -0.69766732487060
H           43.04221930183364       -2.39052915603358       -0.48079279673665
Ni          87.75528010758745        0.25636708305786       -0.29574506498699
C           91.12379138473381        0.13957798268994        0.06276703065015
C           90.48395629812117       -0.98726250565343       -0.41083176600932
C           91.16733517557888       -2.17903462307374       -0.81158253228878
C           90.21488777652544       -3.07119748613677       -1.17019517650082
C           88.94786322504982       -2.43391737922013       -0.95708217897512
N           89.12588378073305       -1.14017498459349       -0.53402242979995
C           87.72209892027720       -3.07529614032325       -1.08023632907290
C           87.69789994886470       -4.50811962065284       -1.46009931528412
C           88.32317998793764       -5.46641483558752       -0.66756348748421
C           88.29924367140804       -6.81162995073941       -1.03373131813944
C           88.98777619624589       -7.78531585510656       -0.14908430069401
O           88.91072459909340       -9.05132002921027       -0.58384798911624
O           89.56940836285314       -7.49052873882608        0.86340295400213
C           87.64542337934122       -7.20750545734788       -2.20038892999875
C           87.01934685219223       -6.25547664307717       -2.98962103956809
C           87.04288519609439       -4.91698540773132       -2.62440051526144
C           86.51335431438902       -2.43544105827906       -0.83575539342378
C           85.24681098801680       -3.10249627863725       -0.82364471471759
C           84.30596714232823       -2.15248057645102       -0.60418894362266
N           86.35081005741289       -1.09099675697611       -0.59316069771148
C           84.99869011233702       -0.90879826905710       -0.48948033324892
C           84.34800943150202        0.32508468665111       -0.40469458741031
C           85.04026698443224        1.53758493031479       -0.33493695650757
C           84.39581247296880        2.81145720968035       -0.37052775476728
C           85.36869475069970        3.74379266076693       -0.22881233862215
C           86.60285072990648        3.03364884639726       -0.07967495475479
N           86.39265504654844        1.67733283826105       -0.18990608066613
C           87.81585816176255        3.63979504843889        0.21824192242510
C           87.85594854781985        5.11073563562067        0.40172795179532
C           87.11164938551184        5.72515627352448        1.41103997899209
C           87.15400155689595        7.10209789016090        1.58127353604680
C           87.93700666293074        7.88174556968624        0.74650586891547
C           88.68601924693998        7.27900184101136       -0.26528163076341
C           89.51276888524215        8.14833604172334       -1.13986578254318
O           90.19370209862161        7.47366356874445       -2.07766340356035
O           89.58441303945260        9.34589203885350       -1.03479964628610
C           88.64610135083974        5.89660938255624       -0.43439589740775
C           88.99505187399063        2.92154761527141        0.37392695523643
C           90.23622061048530        3.50153145859999        0.79707935824899
C           91.15824324579542        2.51073255186429        0.77961778838172
C           90.48180045755311        1.32843397891545        0.34029120074241
N           89.14873160579232        1.58051909719739        0.12988477582255
H           92.19883407195584        0.09843945845087        0.19309228283860
H           92.23933507225648       -2.29514327807005       -0.81992217502455
H           90.34631086579255       -4.07407518598967       -1.54242030046744
H           88.82241683121397       -5.17987506518458        0.25158745409006
H           89.38360262648776       -9.62265263003166        0.04293552662417
H           87.62924059219991       -8.25287363271509       -2.48381690347334
H           86.51018367660645       -6.55595489539963       -3.89837292667760
H           86.56171665063889       -4.17557634155568       -3.25248781849187
H           85.10683805208549       -4.16319680393881       -0.95385502865337
H           83.23640019000234       -2.26664245500961       -0.53219136994414
H           83.33520283598257        2.95801673963748       -0.49623725464825
H           85.26856006499592        4.81684191673686       -0.22415814526954
H           86.50924847950370        5.11529083277194        2.07495069714258
H           86.57370139396825        7.56502853679618        2.37125715141951
H           87.98056239340033        8.95848605719781        0.86523727722078
H           90.70549070861996        8.10904598378674       -2.60416324543531
H           89.21992266335998        5.43134623392598       -1.22713237046045
H           90.36906685465615        4.53361221844597        1.07822278942761
H           92.20642324507129        2.55841265367579        1.02821329045933
C           53.57571043812893        0.21697346299433       -0.82101925320526
C           52.35704618833011        0.18571555093363       -0.74362533711721
C           54.92212645415964        0.25887030513261       -0.91443825852483
C           56.13937392229128        0.30852200592710       -1.00470047827498
C           66.97378108032392        0.43168896411125       -1.03017005591695
C           65.75325153584392        0.42678286388871       -1.08290167824961
C           68.32322228663337        0.43927081568028       -0.99489183313172
C           69.54467317744458        0.45968997339091       -0.98739231035343
C           80.37529394882604        0.40655260956560       -0.56774795998462
C           79.15709757917233        0.43654652920476       -0.65442905859610
C           81.72320166905429        0.38116258663870       -0.49289299044328
C           82.94330133893907        0.35216673815467       -0.44119529905393
Ni          60.94297071893310        0.46966606237551       -1.29625052236518
C           57.53898541081929        0.36717583258969       -1.11150612818431
C           58.20436648172019       -0.65067445688741       -1.80204623815819
C           57.52999482985251       -1.69844668685916       -2.49925658352368
C           58.48974032693111       -2.51617036193694       -2.99594605857786
C           59.74762712996959       -1.98180008738171       -2.57059891075415
N           59.56024722522321       -0.80604149231152       -1.87872293088440
C           60.96588279985383       -2.62570366910411       -2.74107595524543
C           60.98925434725825       -3.94968482056758       -3.40766184871723
C           60.28717814363697       -5.02739670711935       -2.87586566809807
C           60.31579076925283       -6.27018032784888       -3.50740803254566
C           59.54761051425000       -7.38115455404016       -2.89038347383025
O           59.64896674160561       -8.53851838539296       -3.55937452793957
O           58.88779147739300       -7.27645925178917       -1.88842351329847
C           61.04893335974091       -6.44142189426250       -4.68143092946562
C           61.75009441680670       -5.36988305690589       -5.21201511483353
C           61.72437616488589       -4.13423498675857       -4.58119645185055
C           62.16577263451369       -2.09903488082341       -2.27929641444490
C           63.41042605168366       -2.80484638812631       -2.30270837928744
C           64.35149468977590       -1.95488501498760       -1.82439445509559
N           62.33870036175518       -0.83635038379941       -1.76192161017571
C           63.68124598117258       -0.73095291385680       -1.52088679728390
C           64.35078689643075        0.44176425550623       -1.16022718079436
C           63.68009070426201        1.64773321888202       -0.93205644330088
C           64.34934540450622        2.89049427495498       -0.71665770631613
C           63.38669663203624        3.81610693793959       -0.48577401780895
C           62.13303194724696        3.12687168216536       -0.52879577148160
N           62.32461450677273        1.80200192997561       -0.85220549791864
C           60.91658188049510        3.69953116766037       -0.18336293665697
C           60.89190731492381        5.11577609518087        0.25505332171323
C           60.14673315370916        6.05819666523620       -0.45704621935373
C           60.12270357924412        7.38746181128365       -0.05869174914422
C           60.83694428827238        7.79086829898254        1.05709048656765
C           61.58005705174342        6.85703962590856        1.78064964132180
C           62.32811594248082        7.32860373120161        2.97347838338738
O           63.01566277197290        6.35914901877734        3.59381437239035
O           62.33404164253103        8.46781233631040        3.36398005589817
C           61.60727082840240        5.52309967736876        1.37896447077994
C           59.72135805541976        2.99106516523677       -0.19641656026613
C           58.48204960864974        3.50605062210269        0.29960407794120
C           57.54411884820620        2.55405419178045        0.07329748195573
C           58.21054912414480        1.46736227759592       -0.57019366435502
N           59.54885903966405        1.72165070622690       -0.69708889294175
H           56.45942178204908       -1.77930794345065       -2.59631410700587
H           58.36503665497658       -3.40512773656797       -3.59218658743164
H           59.72436997446056       -4.91738327143644       -1.95537019096911
H           59.12259086082210       -9.21014812898376       -3.09592279506484
H           61.06779352185159       -7.40708367116309       -5.17188224714880
H           62.32105288212413       -5.49568316028400       -6.12497500871764
H           62.26705393849171       -3.29724815472330       -5.00620128692715
H           63.53589953454219       -3.82363024933449       -2.63126399274327
H           65.40832499742773       -2.12305934083569       -1.69414786270221
H           65.41844524085450        3.02463762921422       -0.75102856060865
H           63.50709605846103        4.87047820924136       -0.29813830488597
H           59.59539581831002        5.74504481155807       -1.33660754437900
H           59.54464063309150        8.10908793788817       -0.62453760392723
H           60.82927477478881        8.82508454325384        1.38222934222755
H           63.47193837181226        6.74602966355427        4.35875152756113
H           62.17303111530048        4.79752879754463        1.95127546478280
H           58.35834773235919        4.46739840534151        0.77096733929253
H           56.49129941495844        2.57674076265343        0.30395901081931
Ni          74.35778776417645        0.52006831311315       -1.02084083216396
C           70.94900744190201        0.48169812865428       -1.00294100780195
C           71.62923244499187       -0.57325840847724       -1.61965766171221
C           70.97275761381439       -1.63677268492506       -2.31048088368653
C           71.94037165304221       -2.49711535173981       -2.71052612510958
C           73.18326950257251       -1.97016844752938       -2.23478112230240
N           72.98306050399339       -0.75985536868255       -1.60895519843163
C           74.39413359498199       -2.64593271967409       -2.29936727714750
C           74.42953311773810       -4.00022687206519       -2.90074380604172
C           73.67299292395097       -5.03918995625177       -2.36676792325780
C           73.71595093871771       -6.31036587394335       -2.93827612591149
C           72.88992538796157       -7.37846202580814       -2.32045789549328
O           73.01575121880911       -8.56927197431984       -2.92369942844785
O           72.16696369127000       -7.21499063976261       -1.37135524712787
C           74.51704762381623       -6.54883159620154       -4.05474801773205
C           75.27129591079969       -5.51547030347887       -4.58828746864285
C           75.23206612364723       -4.25194843246824       -4.01635722170766
C           75.57727828979240       -2.11652136196953       -1.79811459615470
C           76.80713397891301       -2.84278204007963       -1.71335421793331
C           77.74188920093687       -1.97689436767113       -1.25068114915494
N           75.74980172350764       -0.82602979881990       -1.35540180520256
C           77.08265814782408       -0.72408919725200       -1.06378218448715
C           77.75766922106088        0.46514502376106       -0.77260467554085
C           77.09461473567953        1.69035275650026       -0.64829767898800
C           77.76840129961779        2.93915740984796       -0.49123405716242
C           76.80842351263730        3.88102743116852       -0.32159065477844
C           75.55098262125566        3.19775093378585       -0.34573415169338
N           75.73870528094074        1.85767444189290       -0.60063884370725
C           74.33335767454179        3.79053916936742       -0.03762295642675
C           74.31138189382513        5.21958409478581        0.35515661068992
C           73.56161174472216        6.14056975730900       -0.38026845970021
C           73.53588456314527        7.48035847736360       -0.01907658139895
C           74.25413409251573        7.91678240112159        1.08164589724224
C           75.00379775503536        7.00545337102642        1.82687372786010
C           75.75785742279555        7.51155254445738        3.00160923730434
O           76.44855877716994        6.56015902936842        3.64625030571591
O           75.76406870435247        8.66106775598701        3.36043136131420
C           75.03166088217407        5.66071682126937        1.46323422202041
C           73.13281150845084        3.09082197938471       -0.05207649803698
C           71.88401533946970        3.63114414707249        0.39106601754823
C           70.94049670577752        2.68965818054794        0.14453533398787
C           71.61427988686093        1.58113419185974       -0.45228763598510
N           72.96040026743506        1.81208499822411       -0.52905033276895
H           69.90809973080390       -1.70001580889950       -2.46725971853273
H           71.83012826846267       -3.41038946036955       -3.27188710153248
H           73.05597628492256       -4.87663296753051       -1.48983539066958
H           72.44890533811957       -9.20936875533007       -2.46333640710315
H           74.54687882854373       -7.53642249636724       -4.49878922160035
H           75.89479246913551       -5.69337627596893       -5.45716012349927
H           75.81717024263031       -3.44515198632663       -4.44346752484130
H           76.92743602631337       -3.88374042232327       -1.96561418041802
H           78.78829942294495       -2.15319008068792       -1.06064859235728
H           78.83878306100300        3.06505343492324       -0.51650268566673
H           76.93295868687673        4.94317299969587       -0.18826509344433
H           73.00756844696738        5.80226680201077       -1.24876358236008
H           72.95281739657663        8.18420131934517       -0.60195711717355
H           74.24494517831954        8.95961804564464        1.37793373827121
H           76.90745468537224        6.96832293451498        4.39837761827161
H           75.60107624524963        4.95279071126309        2.05373997489989
H           71.75680444844372        4.60178144955973        0.84197788945424
H           69.88016488168267        2.73166174522431        0.33457616947735
