132
 energy: -266.485801448542 gnorm: 0.000755223725 xtb: 6.5.1 (b24c23e)
Fe          17.02562894883588       -0.00632508643232        0.05141807352447
C           13.63767951234147        0.10005141736511        0.09374955709027
C           14.28483791225792       -0.35003377366239        1.22615788068307
C           13.60721458851056       -0.81433863020595        2.39899761559782
C           14.56156502592851       -1.05633799856071        3.32817997208861
C           15.82088505043000       -0.73001542916388        2.72311493754083
N           15.64049464772417       -0.33446953330829        1.42593221716426
C           17.03967727592167       -0.76375175137984        3.39191066843640
C           17.04447710726873       -1.10755504777099        4.83331071503618
C           16.38573530446290       -0.28967633167738        5.75447277945851
C           16.39202949573125       -0.60443270091699        7.10343784384982
C           17.05621906371150       -1.74804490973853        7.51618019542160
S           17.07647248697228       -2.14801873917043        9.22320064555528
O           16.86269781092387       -0.97806862634782       10.02278173249114
O           15.72612538593517       -3.04891960724482        9.26904465983595
O           18.19021793433942       -2.99493408010627        9.53428323752598
C           17.71752610689951       -2.57879126746428        6.62634658773459
C           17.71060328204642       -2.25106868094727        5.28059665979813
C           18.25136973587720       -0.49514825473733        2.77049534501953
C           19.51406834402450       -0.48176215105321        3.44772894956613
C           20.46286929835721       -0.28879562102145        2.50012747821079
N           18.42763729179697       -0.25847826882598        1.42822350025730
C           19.77710889550273       -0.17337003691985        1.25134141734090
C           20.43642022998581       -0.05806954671514        0.02149464054067
C           19.75606075466057        0.08740785788146       -1.19396523939213
C           20.41714668290986        0.16003629624000       -2.45906658556186
C           19.45921958945085        0.41151381997482       -3.38371649505386
C           18.21629284258930        0.49999443093236       -2.67650799322915
N           18.41146097127068        0.26146158600415       -1.33752240156746
C           17.00621601631926        0.83317593579214       -3.26930600661103
C           16.99626183950252        1.17311900196040       -4.71139460780488
C           16.26969566970488        0.39209783941502       -5.61329678951241
C           16.26118574588848        0.70236091640612       -6.96328134878181
C           16.98258199786212        1.80252455459910       -7.39712995836639
S           16.96867551120038        2.20628351582243       -9.10426089129220
O           17.27276280819347        3.59292389186580       -9.30882970993337
O           18.26967178292065        1.35474895061619       -9.57206627034990
O           15.80611361573997        1.65533699418139       -9.73219452872246
C           17.70670333038073        2.59985730896477       -6.52570101712088
C           17.71267773341310        2.27769112910970       -5.17859373643794
C           15.80235248927467        0.85493972856631       -2.57349151162676
C           14.54539451499559        1.23335532666402       -3.15284435914253
C           13.60011145778897        1.02252814600157       -2.20720813840895
C           14.28145352389120        0.52786883354012       -1.04891196309282
N           15.63287571479998        0.47172422671226       -1.27081193536939
H           12.55381257845335        0.11977570803666        0.10263431578587
H           12.53863533612681       -0.93280577957540        2.48187983883917
H           14.43742564224222       -1.42615682936581        4.33302639222634
H           15.88129813270752        0.60587304720331        5.41099789395285
H           15.89562696789013        0.02841910876933        7.82832301223783
H           15.57531803090473       -3.38095880211406       10.16243965928217
H           18.23078159891304       -3.46221867955239        6.98471842376144
H           18.21397276722420       -2.89144392427823        4.56577689147390
H           19.64726705534866       -0.60214419342967        4.51040864496999
H           21.53246184075287       -0.22887137258088        2.62058064639783
H           21.47759049139524        0.03271522860902       -2.60530138965336
H           19.57322896282365        0.52103890380140       -4.44981834972794
H           15.72083879627767       -0.47044681832653       -5.25382220805199
H           15.70203410207049        0.10402368697465       -7.67154487101720
H           18.64029540940660        1.73296861291431      -10.37918758101138
H           18.24915522779336        3.45992933768881       -6.89780615684291
H           18.26344215583555        2.89418199400287       -4.47784177693661
H           14.41642930365992        1.61268536123509       -4.15347616756206
H           12.53515844037496        1.17952939792036       -2.26986243025103
Fe          30.44384434180107        0.01271106428852       -0.05015231976589
C           33.83172046164171        0.12849418695386       -0.04988496720742
C           33.18464512098298        0.12838709347653       -1.26850239065858
C           33.86233633922713        0.12991674586346       -2.52985633405313
C           32.90806391645318        0.24838629071017       -3.48277094653304
C           31.64870968358925        0.32827293366907       -2.80004354103701
N           31.82900715944457        0.21694708045172       -1.44845962019523
C           30.42989790273868        0.54343070466529       -3.43414506709173
C           30.42514021978592        0.75601461030359       -4.90062617707645
C           31.08414198417753        1.85594335040782       -5.45496492786571
C           31.07774259331279        2.06128439547315       -6.82486430500302
C           30.41312737555127        1.15098998591314       -7.63047131927177
S           30.39246671785488        1.40929831883709       -9.36458749559552
O           30.60607763073938        2.79175797733584       -9.67600810186934
O           31.74275995171905        0.58900937002636       -9.74003203731557
O           29.27859266375500        0.73690256681161       -9.96594778305464
C           29.75162652079907        0.05062383620471       -7.11000693136282
C           29.75874002341795       -0.14153178794814       -5.73833963142353
C           29.21806859308528        0.56258808143704       -2.75765089082106
C           27.95520730801298        0.82360961529431       -3.38239443848828
C           27.00640226953128        0.65220139565565       -2.43068621159341
N           29.04185717568805        0.28699702419381       -1.42282941680954
C           27.69230496383187        0.29922619805454       -1.22735891072716
C           27.03307605404637       -0.04763547137445       -0.04182093229594
C           27.71347884439563       -0.36070122068706        1.14163454020191
C           27.05250271542948       -0.76060544833257        2.34411964182297
C           28.01039208482172       -0.86767539318184        3.29641894110525
C           29.25312089398741       -0.52339231199252        2.67200283694625
N           29.05792789312160       -0.25072257479214        1.33956073618631
C           30.46309194634959       -0.43188838824166        3.34602996852848
C           30.47326337307909       -0.64884667449808        4.81168060198538
C           31.19990269828834       -1.70802101969825        5.36075295338387
C           31.20885567591921       -1.91876768966443        6.72978965131879
C           30.48787259575857       -1.05674527776522        7.53978258309382
S           30.50207488412763       -1.31292560464423        9.27515038450291
O           30.19957832570541       -0.10013249312871        9.97842131685959
O           29.19999558767917       -2.27582478679579        9.39337129791208
O           31.66379850265185       -2.05838374955062        9.65502163330282
C           29.76370183922736        0.00631434038021        7.02507961619608
C           29.75720739597267        0.20487934537297        5.65427047848994
C           31.66688418228714       -0.15432003496670        2.70749030005795
C           32.92379936165880       -0.01649869441987        3.38569885845695
C           33.86915812394533        0.13647580134782        2.42907634320942
C           33.18786553120260        0.10435354193466        1.16995572983614
N           31.83641189862348       -0.02946142938584        1.35536596521693
H           34.91559087815477        0.14991262381177       -0.05076619648225
H           34.93089775783907        0.05017808246923       -2.65060685849733
H           33.03228951585002        0.27571659633702       -4.55315148275515
H           31.58883763773485        2.56137688399905       -4.80528041653135
H           31.57436707442876        2.91683385973397       -7.26506426065115
H           31.89352697253113        0.61044998719587      -10.69289979676065
H           29.23808431633151       -0.63800583638128       -7.76907018831119
H           29.25531277495078       -1.00045283132796       -5.31027414206977
H           27.82185895846984        1.10371266149806       -4.41451515773358
H           25.93669573856407        0.75085073427271       -2.52082842795468
H           25.99220463467744       -0.93391349757125        2.43279004736917
H           27.89652398287156       -1.15971747403616        4.32759095459135
H           31.74845476389904       -2.37663332250071        4.70768600858589
H           31.76801848692797       -2.73663598028897        7.16650239656547
H           28.83840660017609       -2.23695042945151       10.28751347742210
H           29.22155283647964        0.66796427243456        7.68895717678722
H           29.20629067787138        1.03673782981890        5.23123808627949
H           33.05268047063795       -0.03332589104342        4.45569716784303
H           34.93412860242992        0.25906801091428        2.54529320302658
C           23.06135724521165       -0.09054024588728       -0.00845149089541
C           21.83761648042489       -0.08336128059709        0.00577837537917
C           24.40816187901505       -0.08836404208868       -0.02405408681235
C           25.63185022031416       -0.07492713841523       -0.03627168013281
