244
 energy: -446.488664165608 gnorm: 0.000943142010 xtb: 6.5.1 (b24c23e)
Cu          51.83299291232505       -0.00113454589442       -0.02802177395994
C           48.42276471180622        0.02581059485231       -0.12212149527533
C           49.05330840430097        1.25140858661448        0.02851376492611
C           48.37346129374964        2.50669277778774        0.17630539117331
C           49.32805965442314        3.45650699067385        0.33345997446847
C           50.60075215010937        2.78965049033608        0.27380672839304
N           50.40293058499024        1.45198610293159        0.09114580174583
C           51.84215187155827        3.41014186148965        0.42811682993043
C           51.85011469092036        4.87942900361709        0.63308297653873
C           52.32812607277516        5.42369506632842        1.82878067768874
C           52.33504165518434        6.79208401656758        2.01864920750047
C           51.87000555683361        7.64819807385560        1.01481362804942
C           51.89376558262133        9.10501713913896        1.23993268043019
O           52.29248472763070        9.61871128013706        2.25374475670625
C           51.39338788161796        7.10542870156034       -0.18083918092125
C           51.38075414117968        5.73445732460896       -0.36755457568746
C           53.07753659695874        2.75949916625709        0.40608459206581
C           54.34713460925843        3.41689330236821        0.52558815353117
C           55.30023070640387        2.45797574231981        0.41750137813696
N           53.27990585997237        1.41714366196510        0.22066424826256
C           54.62669998331508        1.21042449525072        0.22321719520085
C           55.27804075794842       -0.02313037784499        0.03574997712633
C           54.61779989282593       -1.25010021478455       -0.16241281428787
C           55.28107203735521       -2.49949987077736       -0.37914460228953
C           54.31977062424161       -3.44849479318394       -0.50257897146416
C           53.05598678445286       -2.78443047074751       -0.35986899913746
N           53.26908193814988       -1.44490216235998       -0.16770630815264
C           51.81376105460718       -3.41851518314689       -0.43573895959740
C           51.81029008389582       -4.89364487975537       -0.58620594030463
C           51.24631462656216       -5.49138825821138       -1.71652942936528
C           51.24131758909451       -6.86838334947657       -1.85251776502839
C           51.79490421255194       -7.67599618896053       -0.85622375650591
C           51.79552428151919       -9.14584383113629       -0.97232838293593
O           52.24995431038034       -9.88240922447425       -0.13481848947427
C           52.35836026545222       -7.07811475851485        0.27595890070315
C           52.36905698663144       -5.70309429703519        0.40772198431805
C           50.57570189248010       -2.77473218665710       -0.37615865243566
C           49.29657423722907       -3.43071412397620       -0.41619009050675
C           48.35030629544346       -2.46298697939654       -0.33714533160373
C           49.04185903317425       -1.20973165496813       -0.23459046789111
N           50.39006419469846       -1.42839838208798       -0.25366020611132
H           47.33787087347025        0.03266754510398       -0.13862043862313
H           47.30190709181311        2.62914733079581        0.16726113164722
H           49.19037129432498        4.51437895278777        0.48923435502623
H           52.67977376369482        4.76193092516546        2.61227266588907
H           52.69923375103588        7.22240761406514        2.94538081886088
H           51.50726715714162        9.70449175225477        0.38837015710510
H           51.03400920290592        7.76262379504626       -0.96609869152700
H           51.02113231158737        5.31620177485247       -1.30099541615478
H           54.48919877147766        4.47662349770645        0.66151179257461
H           56.36874853278518        2.58039789724137        0.46087918556684
H           56.34834826464983       -2.62843002737357       -0.43572969864400
H           54.45169529917626       -4.50162662329833       -0.69029770163552
H           50.82608716488360       -4.86675135856490       -2.49678190364312
H           50.80632612526061       -7.32392298666382       -2.73620108557826
H           51.33691684183042       -9.52975783827904       -1.90846542092125
H           52.78328518877024       -7.71323765199026        1.04582340125107
H           52.79608009258951       -5.24261103656749        1.29151100905678
H           49.14873726978730       -4.49647656367854       -0.48358465978202
H           47.27748219946051       -2.57403263085216       -0.33773538217384
Cu          84.59328327536950       -0.05425890408160       -0.05455116701984
C           87.99983680848975       -0.09277719198810       -0.10681704717722
C           87.36162442571523       -1.32323653219562       -0.14190876488767
C           88.03422588528578       -2.59082659594046       -0.16411316596707
C           87.07364474259374       -3.54758029339109       -0.16310529827963
C           85.80425514601495       -2.87181384960545       -0.15098713184972
N           86.01042747402204       -1.52280162143439       -0.13227299025864
C           84.55800201981840       -3.50188771847708       -0.11808371750838
C           84.54029088371648       -4.98474859258027       -0.13234192007845
C           84.01742315901230       -5.69586432821060        0.95198485311380
C           84.00120619547559       -7.07717029092927        0.93808438370839
C           84.50305128768649       -7.77981685405797       -0.16253699292115
C           84.46984527337234       -9.25356272202781       -0.15499162014712
O           84.02702567061414       -9.90818170072330        0.75399159116916
C           85.02465368063979       -7.07042627170858       -1.24704701988421
C           85.04498112587218       -5.68705143133652       -1.23008016528149
C           83.32616650048902       -2.84564316021257       -0.06975004522905
C           82.04797653262555       -3.49879813432880       -0.07201953425348
C           81.10430233647057       -2.52431655236812       -0.04563012010585
N           83.13963615963704       -1.48892608723463       -0.05406794638423
C           81.79584397159327       -1.27040010084709       -0.03978037975267
C           81.16186895575154       -0.01585467395339       -0.03122031693411
C           81.82340778196192        1.22406383768778       -0.01651989963050
C           81.16198223496377        2.49390276029329       -0.04491057880445
C           82.12828339585899        3.44598633165157       -0.01326151114916
C           83.38976957807736        2.76269308595588        0.03530808312478
N           83.17180380566982        1.41079343613183        0.02021691272831
C           84.63681375923588        3.39127756074561        0.05940719870408
C           84.65351985091225        4.87223202572922        0.12764001272771
C           85.23088778441407        5.62354061640430       -0.89964475431341
C           85.25105643854280        7.00538078130263       -0.83140198805314
C           84.69972433254533        7.66367475774583        0.27038146536722
C           84.71864974772299        9.13444118951113        0.37345182623729
O           84.27064103250846        9.74485192550588        1.30985043045113
C           84.12134560771864        6.91210184642252        1.29867026000300
C           84.09512905369456        5.53282634325068        1.22630720273665
C           85.86912108759569        2.73381658202403        0.02821993610260
C           87.15359371608908        3.37715223341029        0.09495773916558
C           88.09194302652431        2.40012047590111        0.03963913619730
C           87.39034379218548        1.15133748175073       -0.04817137215871
N           86.04408630601992        1.38236856978104       -0.04821009648540
H           89.08484198847960       -0.10530432330643       -0.10994970115321
H           89.10531082686128       -2.71736983769948       -0.17068044551898
H           87.20540213097301       -4.61758687533990       -0.15784046141658
H           83.63842334355793       -5.15431812098189        1.81135784810071
H           83.60178343472025       -7.63637778919135        1.77737006652025
H           84.89277740225869       -9.72400169032956       -1.06812157237909
H           85.41277058293414       -7.60755452201999       -2.10642496885196
H           85.43856360135371       -5.13892171042637       -2.07873089514919
H           81.89451044567720       -4.56529187621328       -0.10093955278170
H           80.03271460504129       -2.63795355291333       -0.02976709317763
H           80.09418660079668        2.63238598639711       -0.09421287604188
H           82.00213392598386        4.51619318804931       -0.03871699449872
H           85.65011330192689        5.11588931290621       -1.76110082599525
H           85.69691984387254        7.58107665848701       -1.63603662190792
H           85.18701959524462        9.64646295719355       -0.49412954013619
H           83.69772614533484        7.43181909320850        2.15135948470293
H           83.65704023714436        4.95219116612266        2.03030974579685
H           87.31010992567950        4.43990770241468        0.18607049972907
H           89.16549053509198        2.50083390744030        0.06479837005161
C           56.69042624549699       -0.02822266490968        0.04018413482488
C           57.90900491998660       -0.03163130656900        0.04479342251479
C           67.62193579005927       -0.03200992859809        0.01354900107013
C           68.83979696619366       -0.02447621958597        0.00355710120557
C           78.53507774938230        0.00616306450547       -0.04966596063791
C           79.75180725047075       -0.00317046962498       -0.04061416267018
Cu          62.77021622437685       -0.03695217273765        0.04108933695726
C           59.32038430289215       -0.03452164057487        0.04668639273727
C           59.98236060360887        1.18225144795600        0.29954483198784
C           59.32948932625952        2.44383884358690        0.46774502559063
C           60.28926736728982        3.35597214487896        0.76539514526407
C           61.53957754277531        2.65382311101948        0.78654408382344
N           61.32438206446520        1.33765838684711        0.47682067310000
C           62.77527866501918        3.23083578163043        1.09258588861513
C           62.77435228586596        4.64117728908758        1.54386290331707
C           63.50358511113815        5.60893186825190        0.84524640648523
C           63.49797428187618        6.92513579277635        1.26431634049278
C           62.76731587224438        7.30498667865996        2.39509492645894
C           62.78081765624676        8.71576776913381        2.82368226380736
O           63.39732035169853        9.58072560706847        2.25615301823902
C           62.04036356768241        6.33947146223161        3.09575813982265
C           62.04248544664232        5.02244433925142        2.67258944104354
C           64.01078774413979        2.58522766469822        1.00163627828094
C           65.26602066452087        3.14158450887806        1.41788232477856
C           66.22265385323976        2.22472777556385        1.12259967974887
N           64.21916980821263        1.33401701077292        0.48651494993963
C           65.55994413964893        1.10366636405959        0.52869950022620
C           66.21372802837942       -0.03623725824351        0.02493840423344
C           65.55631360351622       -1.17868287216900       -0.46798277374284
C           66.21391097677134       -2.30218095181041       -1.06277475579170
C           65.25487947072220       -3.22059839125607       -1.34538531075537
C           64.00300653786924       -2.66218668831703       -0.92181217606085
N           64.21599447435297       -1.40960397180834       -0.41211674055144
C           62.76619458226591       -3.30626928345386       -1.00596582240165
C           62.76055197547770       -4.71580444297816       -1.46056287421166
C           63.48417652971308       -5.68750413945732       -0.76300823846899
C           63.47447148623650       -7.00572466741246       -1.18289660560484
C           62.74503856504096       -7.37847954613653       -2.31437145183110
C           62.71809002653433       -8.77589463678486       -2.78472077608314
O           62.10551991524673       -9.14241949259492       -3.75458765301980
C           62.02433484409704       -6.40606257967059       -3.01570396293927
C           62.02952539387242       -5.09129757026964       -2.59242780041307
C           61.53209907028630       -2.72748621301115       -0.69716331285964
C           60.27992344846994       -3.42656222445171       -0.67683337209026
C           59.32235442717390       -2.51266339268411       -0.37745495207431
C           59.97868406223325       -1.25304303995647       -0.20702873494557
N           61.32013438234046       -1.41132695893040       -0.38493738608832
H           58.27175481098011        2.60981465306022        0.35614965694748
H           60.16552570248518        4.41314475855349        0.93523583281722
H           64.05903197099344        5.32094572863228       -0.04020973165460
H           64.05603549306944        7.68220181644552        0.72389646052010
H           62.16694696228002        8.92439118128231        3.72574970056853
H           61.47376347570876        6.62468993374691        3.97621922015704
H           61.48839050656203        4.27313043885668        3.22673191902660
H           65.39396926629048        4.10035000247273        1.89361378619490
H           67.28314135463616        2.28904159450175        1.30287893987434
H           67.27271986948375       -2.36831533514138       -1.25202584116554
H           65.37929879720035       -4.18147253845068       -1.81780361226127
H           64.03997127671053       -5.40398962426693        0.12373535779670
H           64.03354362612295       -7.75406767039393       -0.63065798563644
H           63.31507638809702       -9.47780050425236       -2.16444300084064
H           61.46433788253167       -6.70404473086902       -3.89560160103404
H           61.48030123764408       -4.33779624998017       -3.14565362128982
H           60.15330813788174       -4.48284401337715       -0.84998277989098
H           58.26409394540892       -2.67634614005974       -0.26641229399427
Cu          73.68863599728543       -0.00553787865563       -0.02984911377927
C           70.24817128647682       -0.01882112509836       -0.00666502987482
C           70.89971224617908        1.20354093265252        0.24236463189976
C           70.23274838510036        2.45815092886173        0.41583361842869
C           71.18766174289316        3.38037777630779        0.69923896086405
C           72.44690191716656        2.69259007543902        0.70027982380439
N           72.24123106573832        1.37286004095518        0.39903742257156
C           73.68288072466042        3.28515709819823        0.97193680660429
C           73.67793897335734        4.69816727051894        1.41608314054551
C           74.36976202217302        5.67364045402870        0.69103007657496
C           74.36267396006929        6.99023626022977        1.10924938374095
C           73.66946358294729        7.36216100860071        2.26587563010683
C           73.68166717537355        8.77378103905783        2.69266659630867
O           74.25696298487865        9.64707917240163        2.09572751298803
C           72.97996785952652        6.38874939424110        2.99281615233215
C           72.98191156371709        5.07163766948408        2.56972943022477
C           74.92286552157704        2.65050080864589        0.86069206391421
C           76.18220048348122        3.22847472867802        1.23423161647063
C           77.14027891838509        2.31076720960472        0.94715089978483
N           75.13108936769522        1.38793168625143        0.37474791773098
C           76.47386465822102        1.16620805687746        0.40348473311311
C           77.12569038270718        0.00705120649610       -0.05269729082928
C           76.47539723635515       -1.15540878556930       -0.50382697148084
C           77.14156870407506       -2.29518279212859       -1.05710744088005
C           76.18642119548055       -3.22196510642934       -1.32521522947810
C           74.92925649268372       -2.65368375885145       -0.93133098741185
N           75.13495235897547       -1.38762901521138       -0.45336441668691
C           73.69365270194281       -3.30090192174315       -1.01706233863955
C           73.69602258942473       -4.71935509735793       -1.44342910726055
C           74.40678331961897       -5.67602688012529       -0.71245675419629
C           74.40707510625982       -7.00212192517449       -1.10623723327727
C           73.70120378018612       -7.39825276221385       -2.24489414359875
C           73.68611983236575       -8.80472666417242       -2.68666733216964
O           73.09551508826645       -9.19307060019795       -3.66184198734689
C           72.99359949868169       -6.44097965016980       -2.97959014050336
C           72.98813364612481       -5.11811423212858       -2.58180221664985
C           72.45655752574920       -2.71724278598967       -0.73281117844732
C           71.20236662459844       -3.41388557422806       -0.71367964845024
C           70.24435673119686       -2.49675089028054       -0.42417350497334
C           70.90468516549456       -1.23699701724679       -0.26314458133748
N           72.24517271270030       -1.39755406009423       -0.43507093278511
H           69.17062936243863        2.61034116738878        0.31595161655695
H           71.05663018541244        4.43658626632062        0.87008128922604
H           74.89752084203012        5.39153685734339       -0.21304077084987
H           74.89190832081427        7.75358861816842        0.54902343863763
H           73.10611150959677        8.97468948666512        3.62131166690993
H           72.44263948913077        6.66753936912611        3.89347328190162
H           72.45672369811147        4.31601669680380        3.14321409851592
H           76.31295355188584        4.20260104104544        1.67676817047561
H           78.20409820611211        2.38939090232834        1.10196490313766
H           78.20251629841184       -2.36499158903186       -1.23365723269354
H           76.31772221243705       -4.19572720989427       -1.76854675575574
H           74.94488988978750       -5.37385020666464        0.17900568347151
H           74.95590872214254       -7.73880000249007       -0.52862748106473
H           74.27103452817748       -9.49236672823348       -2.03937460969489
H           72.45235822377229       -6.75668929934755       -3.86503035907412
H           72.44894163713234       -4.37672678479027       -3.16063898476017
H           71.07618843450548       -4.47159779082074       -0.87877751520923
H           69.18444819357936       -2.65627849669684       -0.31287820042281
