274
 energy: -508.077137756818 gnorm: 0.000395463779 xtb: 6.5.1 (b24c23e)
C           42.37538247317084       -0.06118914761665       -0.05066194900174
C           42.98718992723153       -1.29875058595295       -0.20098614359443
C           42.33901488875707       -2.55885998301929       -0.33154636619794
C           43.30408005753705       -3.51646550579158       -0.46681342113555
C           44.57319923727201       -2.87021649079305       -0.43473634387731
N           44.33126975064239       -1.53747315392173       -0.26171996686335
C           45.83824660010849       -3.46088026765514       -0.53630498597247
C           47.05408670608724       -2.77725528415862       -0.45588226350931
C           48.35081806464126       -3.40732625888342       -0.62991705792301
C           49.27184687189474       -2.43252715878259       -0.48460388801242
N           47.20896489599568       -1.44367094306269       -0.23052254253996
C           48.53683532653112       -1.20820568884314       -0.23120838953299
C           49.17400703093170        0.03050769898098       -0.01325722873359
C           48.53519463436399        1.26663722124398        0.20246254533818
C           49.17546134586338        2.50828640081708        0.45777680806623
C           48.20585070452721        3.46131400401441        0.60290048973469
C           46.94205037855964        2.83136610197121        0.42975325747817
C           45.67804244099881        3.42677288776076        0.50170463044208
C           45.63629075936118        4.88874511098457        0.73816395246912
C           46.22998273319637        5.77351622582790       -0.16624177394648
C           46.17323693500388        7.13769168648415        0.05214214378193
C           45.52661166344593        7.64367784832324        1.18140489631176
C           45.48718707097279        9.11359133599431        1.36898043501186
O           44.83361503990216        9.49609349539755        2.47654255719856
O           45.98533622066448        9.90945962119957        0.61394241310924
C           44.93809864590124        6.76458407873763        2.09120007426942
C           44.99218002982551        5.40011492374484        1.86829015660768
C           44.46160267745118        2.74795263012493        0.36679815047613
C           43.15823600827025        3.39510069549647        0.37766028924285
C           42.24445431079846        2.41626951560197        0.22318452852435
C           42.98828411482668        1.17435961788272        0.10750064632243
N           44.32058269010582        1.41398875573802        0.18701599688293
N           47.19297299892472        1.50443328726450        0.19987077726069
C           45.86591980362439       -4.92810364411638       -0.74576953639110
C           45.26913010864259       -5.49158472956750       -1.87676879469685
C           45.27911294495135       -6.86191369125123       -2.06939250886059
C           45.88437407344647       -7.69402112795079       -1.12714239388802
C           45.91073266320610       -9.16822833365306       -1.28085215782997
O           45.30311483381121       -9.60263526175343       -2.39552957641591
O           46.42015127700210       -9.92542361306532       -0.49435268888525
C           46.48446106932617       -7.13539660009897        0.00304245911529
C           46.47750023386322       -5.76560612197762        0.19096186148788
H           41.29015209039257       -0.07059556486320       -0.05812383078968
H           41.27030939733020       -2.70134873027568       -0.31535247386953
H           43.15545304083576       -4.57898614770049       -0.57060563233904
H           45.05378183600523       -0.82934938048780       -0.18603685551045
H           48.51185587850606       -4.45048834365350       -0.84844463498016
H           50.34571106928404       -2.50672353988438       -0.54613816378057
H           50.24271315153987        2.64375229460699        0.52672762701204
H           48.34989640598683        4.50694562508456        0.82068404635441
H           46.71725308750910        5.38478441573234       -1.05325468612982
H           46.62440778885973        7.82993583797544       -0.65027082834888
H           44.85154176465657       10.46570056056206        2.52474608207975
H           44.43933657044192        7.15227643428477        2.97158436978081
H           44.54502049530149        4.71675603314721        2.58134154885016
H           42.99039239861209        4.45555336327524        0.47496696282448
H           41.16961868259732        2.49611153394139        0.17924906995329
H           46.47350875459388        0.80327055908123        0.05713906776016
H           44.80937640428303       -4.84483337679872       -2.61566592144170
H           44.81723252327325       -7.29030376858676       -2.95105199633598
H           45.36372676527719      -10.57139228841987       -2.42087648308779
H           46.95033821067341       -7.79157128946383        0.73001390677134
H           46.93039627150140       -5.33518868749514        1.07680010602563
C          104.98434462782809        0.10257524677345       -0.02113162154503
C          104.37036972448668        1.27826321010978        0.39025244074606
C          105.01613076948880        2.46890880022473        0.82663852701599
C          104.04915073990666        3.38586037461243        1.12796840301274
C          102.78120230210349        2.78842250264891        0.87354069859649
N          103.02576726053371        1.51591940607590        0.44270809272603
C          101.51488503670663        3.36111509494235        1.04048437459604
C          100.30056203247433        2.70920287489890        0.81089234874293
C           99.00285107010882        3.35088119067541        0.92457605674819
C           98.08359983379754        2.40873501296163        0.62961443681751
N          100.14814292479943        1.41011031513875        0.43385438611959
C           98.82066817604571        1.19641670201667        0.32902920511625
C           98.18569273717912       -0.01766289525112       -0.00383515917874
C           98.82712527184519       -1.22507194832666       -0.34029543974539
C           98.19013743314196       -2.45786082807463       -0.64228270940231
C           99.16178789104839       -3.37529394739182       -0.93179355041023
C          100.42348211077397       -2.72659471061692       -0.82532603525790
C          101.68844386803146       -3.28770532288662       -1.03169327247201
C          101.73318000589148       -4.70522444619354       -1.46010607017384
C          101.12958139868034       -5.10660826511807       -2.65505082746982
C          101.19017550000893       -6.42771681018407       -3.05857138483497
C          101.85058329537989       -7.37428667773371       -2.27291850346868
C          101.89384065950620       -8.77692426450477       -2.75057584044761
O          102.56208813041074       -9.60271991277605       -1.93107305115652
O          101.38748146733009       -9.16327532194620       -3.77329770224701
C          102.44868642776129       -6.98052537637363       -1.07537461566341
C          102.39068241644696       -5.65712338871938       -0.67579704776927
C          102.90322761515851       -2.61257660303573       -0.86656364270050
C          104.20705176745224       -3.19332022012399       -1.15036368999436
C          105.11895767706359       -2.24236053004734       -0.86566842352934
C          104.37344837272452       -1.07877112722595       -0.41926352773116
N          103.04195734126776       -1.33426273072508       -0.44421446599420
N          100.16953004835187       -1.43248714538456       -0.45488575251107
C          101.48297572790896        4.77062144100094        1.49810590292839
C          102.08024112841778        5.77642718077706        0.73364948766049
C          102.06552237430490        7.09127182469757        1.16497158605133
C          101.45488295491215        7.42128339700528        2.37525776127459
C          101.42253782002629        8.81224073521207        2.88692981223604
O          102.03178435112666        9.69502266513882        2.08083344369285
O          100.90814945284110        9.14368492942951        3.92470995569369
C          100.85432658923898        6.42016449752309        3.14115077846905
C          100.86601622915244        5.10794029346871        2.70584934149723
H          106.06950985043831        0.11768807105093       -0.02801927094461
H          106.08462538516615        2.59242304718241        0.90251128930707
H          104.19578322686915        4.38596201782432        1.50227375577753
H          102.30468712834501        0.84483047617959        0.20008102954036
H           98.84005091500869        4.38532726367560        1.18011069973682
H           97.00971322192427        2.50124882590955        0.60376518971214
H           97.12361076537589       -2.61452358799264       -0.63069569514292
H           99.02060849586599       -4.41277753511459       -1.18721250604385
H          100.63166475447980       -4.37075019327117       -3.27628914281161
H          100.73149166426509       -6.74386487789301       -3.98905533412261
H          102.54631621389765      -10.49494416688336       -2.31378645910051
H          102.95806472209318       -7.71245844096963       -0.45978499829257
H          102.84544022951665       -5.35369035730232        0.26041287467772
H          104.37641221733315       -4.18806545806229       -1.52982174631479
H          106.19345228942066       -2.29041657334502       -0.94767094487789
H          100.88705335781640       -0.73513145347251       -0.28610819629876
H          102.54392611422479        5.52291928985699       -0.21310698374452
H          102.52772439909131        7.86563283082604        0.56421660085966
H          101.96748826496236       10.57555246972287        2.48498007611260
H          100.38411693826303        6.68749115108120        4.08111652475935
H          100.41256338153215        4.32994465323982        3.30934205235754
C           50.58024312766904        0.04740987145117       -0.00599684416217
C           51.80491355056513        0.06489553173992        0.00273402316136
C           53.14804288077642        0.07906071645828        0.00859111185252
C           54.37890873411011        0.09106047331472        0.01535281275076
C           55.71722157851428        0.10182145769533        0.02375235639226
C           56.94819222290830        0.11027285034653        0.03058404247729
C           58.29112151301171        0.11669632625749        0.03749476405815
C           59.51615789731149        0.11871047046174        0.04573285775298
C           69.21199561368311        0.09766653376053        0.08183661297054
C           70.43751267320496        0.09112691045731        0.08562046871521
C           71.77994186714325        0.08589426637742        0.08582896597618
C           73.01155469234284        0.08064864395230        0.08802908768404
C           74.34930501334316        0.07575288680373        0.08775661684131
C           75.58088775270367        0.06953648951443        0.08805541064937
C           76.92331545724512        0.06281916492634        0.08732517997596
C           78.14882449186051        0.05410903332957        0.08822659500292
C           87.84329287072431       -0.03669389506469        0.04330627788349
C           89.06827062428508       -0.04960954706769        0.03605864915425
C           90.41121688836627       -0.05846949433362        0.02751728413828
C           91.64219777443004       -0.06404774001545        0.01946620467286
C           92.98060217433456       -0.06502676675824        0.01270664632607
C           94.21153739593592       -0.06150646612283        0.00819705470184
C           95.55474286111341       -0.05246317356828        0.00211803914112
C           96.77947587626541       -0.03813041302781       -0.00115082893579
C           60.92127794203949        0.11988261714476        0.05296631109109
C           61.55496450201115        1.05507758124956       -0.78796856259477
C           60.91523961261204        1.97287447878924       -1.66025449553112
C           61.88692494833571        2.70376622034141       -2.28726398814096
C           63.14921574075955        2.25869621239636       -1.80741530224774
N           62.89779264178422        1.25526265032788       -0.91085725578826
C           64.41251371364154        2.73030415896751       -2.18608607077442
C           65.63809620956278        2.24135386643466       -1.73063232834631
C           66.92246839814199        2.80533527516412       -2.10718276957329
C           67.86215383276239        2.07251356666095       -1.47494882044543
N           65.81857620545115        1.20074177499817       -0.87134285979028
C           67.15065026031449        1.06925068922441       -0.70790347788514
C           67.80748995400214        0.10153686793922        0.07976472919054
C           67.17329154573575       -0.87376718702596        0.87448029182258
C           67.81273526899328       -1.87320610262109        1.65224243693750
C           66.84080841565898       -2.60435735730510        2.27882467665664
C           65.57853871853615       -2.06530450066594        1.90801703420197
C           64.31536658819020       -2.51197597096506        2.31500221299270
C           64.29413789961767       -3.64121638727056        3.27694172962404
C           63.70035181974457       -4.85625644211781        2.92497430743585
C           63.67641895321124       -5.90722015975157        3.82299968341219
C           64.24068744929806       -5.76147257451705        5.09172141767566
C           64.18334015572553       -6.91443177399795        6.02225790763825
O           64.74682048678908       -6.67013168110058        7.21493682961185
O           63.68451040972513       -7.97833114685772        5.75672551204012
C           64.83431108253988       -4.55032087001481        5.44815051622764
C           64.86272184702072       -3.50161700449796        4.54534766796318
C           63.08958728998093       -1.98952797004826        1.89785357951983
C           61.80480579341273       -2.44846994396895        2.39650893536506
C           60.86530685336351       -1.71506570280704        1.76495699875806
C           61.57725941349663       -0.80455768454452        0.89038707779150
N           62.90980165878754       -0.98381342992086        0.99858240035335
N           65.83045217312420       -1.02762471215662        1.05090819183352
C           64.42725953685171        3.84883412027255       -3.16056759874618
C           63.84574387554474        5.07756512381944       -2.83688453270810
C           63.85393934493206        6.11566888367467       -3.75019299832376
C           64.43817261977316        5.94288436974223       -5.00635853407937
C           64.41303833247567        7.08238055005433       -5.95469390357863
O           64.99685166411228        6.81383024121263       -7.13216796732679
O           63.92049048399705        8.15541375421282       -5.71516001256598
C           65.02054231822652        4.71818657026063       -5.33418736678689
C           65.01635254678500        3.68239029616582       -4.41637589622238
H           59.84808039179302        2.05283839601773       -1.78993777426972
H           61.74350902756778        3.47679420272665       -3.02431102713940
H           63.61213182682773        0.73220673429932       -0.41551892396078
H           67.06336214532116        3.65501210670414       -2.75528798561779
H           68.93426496885102        2.18369321960422       -1.50198258764004
H           68.87997670451128       -2.01179486521122        1.71428219817751
H           66.98356577457068       -3.44875874312477        2.93311305471374
H           63.27039479584187       -4.97391661686541        1.93686127608480
H           63.22081703987752       -6.85418374895857        3.55511451389008
H           64.66672590053112       -7.46830778701753        7.76207361413934
H           65.27028594151280       -4.43159922693550        6.43302148313093
H           65.31179028624268       -2.55605100096553        4.82782594731447
H           61.66300631363872       -3.21696479729325        3.13880817383439
H           59.79307658113960       -1.76020616189351        1.86853367004636
H           65.11611076233447       -0.46034208841600        0.60688352446006
H           63.40157358657256        5.21760771780458       -1.85789541582328
H           63.40849171281264        7.07328899261401       -3.50391797974248
H           64.93805090150778        7.60486715433850       -7.69221211594979
H           65.47304273366606        4.57902119086784       -6.30885789283732
H           65.45735990967380        2.72655780523628       -4.67560582766177
C           79.55331694194109        0.04594701752450        0.08523849529638
C           80.18723396558939        0.97004641864119       -0.76866294645158
C           79.54739397642632        1.88514358206135       -1.64380107212525
C           80.51905900334889        2.61003803440373       -2.27796869353391
C           81.78163905383933        2.16383762963646       -1.80016606133882
N           81.53013149647188        1.16484779182333       -0.89819371591452
C           83.04486244730275        2.63246853401910       -2.18182436939443
C           84.27051936133236        2.14081118167844       -1.72804908766711
C           85.55548560440816        2.70484984713709       -2.10310060641301
C           86.49489041796940        1.96459103657678       -1.47931316361928
N           84.45007298679823        1.09478793803802       -0.87608173011019
C           85.78269057931210        0.95735626790946       -0.71849191513521
C           86.43825482789008       -0.02279137508984        0.05329020745117
C           85.80391775805010       -0.99989549190607        0.84468301834656
C           86.44239741324149       -2.01123306128659        1.60751191055702
C           85.47083653560161       -2.73234647261768        2.24608793332971
C           84.21009648775104       -2.17486531351508        1.89773751642664
C           82.94765986835468       -2.60348388782152        2.32723882279266
C           82.93348151753050       -3.72768753575084        3.29494931961393
C           82.31970869132698       -4.93858075396089        2.96397668838851
C           82.31738990764475       -5.98843361472103        3.86377138391406
C           82.92385198347243       -5.84586606473653        5.11324362571511
C           82.89751507583992       -7.00052526028327        6.04294859530840
O           83.50807402812710       -6.76113183232140        7.21331262294554
O           82.38466297566627       -8.06198689793576        5.79482283840063
C           83.53341176021209       -4.63713903089486        5.45065530145802
C           83.53949745943419       -3.58958756039973        4.54632474480743
C           81.72258250437868       -2.06794352149647        1.92588575918255
C           80.43946118419233       -2.50840355392377        2.44462795789938
C           79.49994433845204       -1.77049381730021        1.81810281610114
C           80.21047617743986       -0.87508197434320        0.92677078698123
N           81.54195416826265       -1.06690720839148        1.02081561033566
N           84.46184372289656       -1.13836927220886        1.03974423839604
C           83.06629016528362        3.75111172935392       -3.15570375509833
C           82.48953079342492        4.98274340981167       -2.83487428752579
C           82.51981063640606        6.02506216984300       -3.74303298456349
C           83.12169895226479        5.85381096880567       -4.99104142103203
C           83.12933953641287        7.00094394700707       -5.93038585772876
O           83.73744504653372        6.73577452677417       -7.09632382776918
O           82.64348999602024        8.07749247299112       -5.69293858468706
C           83.69472884043229        4.62448073256393       -5.31811172867708
C           83.66801595810307        3.58443529120324       -4.40570332314025
H           78.48003641111659        1.96796430371579       -1.77003168462684
H           80.37574085659773        3.37994722756750       -3.01833706141915
H           82.24471200766646        0.64213355994363       -0.40284982086656
H           85.69753737331557        3.55973157037613       -2.74400208876499
H           87.56720215173213        2.07319888012938       -1.50820308700221
H           87.50859776698803       -2.16377128212820        1.65232541919164
H           85.61317633894390       -3.58173987074237        2.89392569861417
H           81.85973350772443       -5.05532804538529        1.98937153890820
H           81.84888447305404       -6.93323538545996        3.61092806681394
H           83.44712877207012       -7.56049061899008        7.76116443649468
H           84.00110665039745       -4.52020788458562        6.42108133989603
H           84.00300361663251       -2.64653373065648        4.81349576519734
H           80.29920246842198       -3.26899678720105        3.19537303321748
H           78.42864155021651       -1.80336775953032        1.93524732427495
H           83.74819671877611       -0.55983299689650        0.60936048300103
H           82.03449097674837        5.12280564124567       -1.86089475807148
H           82.08078334521504        6.98590030285004       -3.49776182911093
H           83.70121021404603        7.53230240885043       -7.65044703671152
H           84.15959019248950        4.48586257272434       -6.28702400733358
H           84.10380918598702        2.62582721212162       -4.66351671502159
