236
 energy: -415.101184164692 gnorm: 0.000905714726 xtb: 6.5.1 (b24c23e)
Zn          54.45102985982579        0.04885217918592        0.01305057965612
C           51.03799587347300        0.05550053838630        0.04468024447589
C           51.66136338106439        1.28684200990022        0.20596824951590
C           50.98059260164062        2.54270673391435        0.35602490037679
C           51.93435776454688        3.49974364713492        0.47291081393913
C           53.21082687368132        2.83783428692908        0.40593743552102
N           53.00978272243506        1.49939156911825        0.23825603351736
C           54.45888599688364        3.46964110915144        0.46199517547892
C           54.46208527368771        4.94122850457089        0.65224384627664
C           53.93274155987108        5.50523896716121        1.81538051041962
C           53.93568578557025        6.87634496712285        1.99902583824964
C           54.46611499588750        7.71418833589120        1.01345342334834
C           54.46854860645668        9.12567014263449        1.19749014226988
N           54.47079248887648       10.26667300069470        1.34699236104890
C           54.99369909979180        7.15521400432286       -0.15441556269308
C           54.99238848134479        5.78283102439798       -0.32833926225904
C           55.70247508899487        2.83690325427273        0.35306910266021
C           56.97651340244560        3.49450065799877        0.44283774800380
C           57.92952697548552        2.53775659975434        0.30801685114153
N           55.90705737202610        1.49426601961456        0.17887306197199
C           57.25168378850041        1.28501381255234        0.14975292285116
C           57.89268562835301        0.04013810203351       -0.01093334732330
C           57.24380252910346       -1.20128376758783       -0.16625881280614
C           57.91339177923585       -2.45645459354570       -0.33987650503197
C           56.95402869794124       -3.40784393967453       -0.46715446689698
C           55.68452995978280       -2.74468988422560       -0.35593838800538
N           55.89793181167317       -1.40401318383125       -0.17767875707880
C           54.43639710566008       -3.37084838700106       -0.44929582037414
C           54.42946481017797       -4.84057331223211       -0.65384320595424
C           53.88161748067640       -5.38894932672528       -1.81588106866832
C           53.87685237636023       -6.75775609177838       -2.01561285321248
C           54.41780992881781       -7.60897527287160       -1.04737635830596
C           54.41393398456844       -9.01803868504460       -1.24917667717123
N           54.41073962592317      -10.15724396934921       -1.41196452974238
C           54.96288180050468       -7.06573576444236        0.11986026590788
C           54.96931092592718       -5.69544905278351        0.30980545854380
C           53.19240848004906       -2.73400581384085       -0.36718420585595
C           51.91228895531702       -3.39059114324756       -0.41363633627555
C           50.96474833745258       -2.43056341691864       -0.27305929082763
C           51.65327008037119       -1.17803895666831       -0.13031226129442
N           52.99996175689867       -1.39568660314587       -0.18884310533668
H           49.95248022033562        0.05767452839569        0.05506521475037
H           49.90887022693881        2.66525361524535        0.36109753470924
H           51.79116577890228        4.56274453151571        0.58319853677877
H           53.53107874955452        4.85809395136590        2.58703223826304
H           53.52884499421859        7.30587387436880        2.90706321962288
H           55.40171864881271        7.80186151579805       -0.92247147797691
H           55.39147891977370        5.35389730428708       -1.24063195697404
H           57.12312109549074        4.55112806639997        0.59856064653575
H           58.99958529593049        2.66569506794891        0.31386521802453
H           58.98265161514346       -2.58930287226479       -0.36166902776269
H           57.09332529915932       -4.46428360522970       -0.63059647218941
H           53.47169933384141       -4.73123420894598       -2.57414324247550
H           53.45612696678430       -7.17511275345767       -2.92298729741132
H           55.37875526654140       -7.72286748747659        0.87469519144941
H           55.38240663329305       -5.27871336007101        1.22150423590462
H           51.76312091801103       -4.45244576328056       -0.52710434198608
H           49.89264147217042       -2.54886893988124       -0.25821140143803
Zn          87.22345090080445        0.00459727285715        0.03079227118614
C           90.63452904574987       -0.00379853899843        0.06528435432912
C           90.01042316526724       -1.22976303696523        0.26137556928905
C           90.69028739092502       -2.48177120476246        0.44372034917005
C           89.73601495405616       -3.43181235177681        0.60554238579776
C           88.46020309617946       -2.76909526607978        0.53451336867377
N           88.66200704187381       -1.43818386263664        0.31501438662069
C           87.21152709289677       -3.39238355965388        0.64886335771093
C           87.20488233226897       -4.85006018977964        0.92239745337594
C           87.77841795559620       -5.35395529391747        2.09233231483505
C           87.76965924022187       -6.71219162302171        2.35418226675251
C           87.18849578198169       -7.59804428857305        1.44194172502056
C           87.17900701640035       -8.99648489072809        1.70707246740850
N           87.17161251842717      -10.12703105836020        1.92148695124273
C           86.61631019848741       -7.09975841048853        0.26756205640288
C           86.62383773538386       -5.73969771567234        0.01542247834842
C           85.96844591636206       -2.75941574732334        0.53236543874101
C           84.69352204819027       -3.39615446671911        0.71556905410926
C           83.74222405057935       -2.44527479701958        0.53316333562359
N           85.76725887507405       -1.43354039892071        0.25747349756938
C           84.42372352775872       -1.21802207634174        0.24359313030121
C           83.78667748827716        0.01380083621964       -0.00414559497090
C           84.43482901563888        1.24242642370209       -0.23858716408208
C           83.76561778424333        2.47401786191512       -0.53840029633229
C           84.72529571606125        3.42056927564601       -0.69816090289651
C           85.99295289661781        2.77655779644455       -0.49133779088521
N           85.77944444381293        1.45091500604292       -0.22500132092564
C           87.24133936451827        3.40347870839276       -0.58015503812143
C           87.24765224736711        4.86294469135889       -0.84445233599392
C           87.84461500793739        5.37194217152009       -2.00034639082807
C           87.84929377007860        6.73222525946651       -2.25154249312621
C           87.25831791079749        7.61486026556713       -1.34245120611852
C           87.26291235562077        9.01537340547668       -1.59663019604075
N           87.26609689405426       10.14752800469835       -1.80294786463232
C           86.66235572001641        7.11133967803998       -0.18224450990430
C           86.65648633628055        5.74930573992537        0.05914646649133
C           88.48428026944941        2.77331963280579       -0.44358711106415
C           89.76471401293185        3.42941743453760       -0.48851716570768
C           90.71063732966509        2.47407862523156       -0.30989772561875
C           90.02074848473913        1.22539837142731       -0.14279623935454
N           88.67479396546936        1.44094010295977       -0.22284774726887
H           91.72005812357773       -0.00653250985889        0.07630622448713
H           91.76169462825845       -2.60703123803011        0.43861130850691
H           89.87847778517170       -4.49107320087505        0.74803292223534
H           88.21852119365987       -4.66913833399869        2.80849113197056
H           88.21079816759432       -7.09435049783643        3.26735154821630
H           86.16858560147628       -7.78392726394042       -0.44375202513239
H           86.18960368145444       -5.35835079486049       -0.90194052697224
H           84.54603892180525       -4.43384200903889        0.96800405166189
H           82.67209295693279       -2.55714994138918        0.60185640485247
H           82.69767068788356        2.59160551476290       -0.62847793434460
H           84.58854489972389        4.45994250919868       -0.94975773039041
H           88.29269728297147        4.68975561191309       -2.71405614951668
H           88.30879781371372        7.11862695567913       -3.15381298810374
H           86.20690476033501        7.79287468177090        0.52669344470619
H           86.20367531556268        5.36369289030726        0.96569127469236
H           89.91552007654381        4.48809564594953       -0.62665728158288
H           91.78238433612583        2.59365573235765       -0.28367383976882
C           59.30352884031974        0.03687328763505       -0.01758732716071
C           60.52107935985507        0.03460257192194       -0.02164899872584
C           70.23607587342913        0.04010665038255       -0.06982861532709
C           71.45371849474364        0.03830055167653       -0.07165023205020
C           81.15989967304125        0.01991806134123       -0.02454221394472
C           82.37687685470080        0.01742118099161       -0.01647135762464
Zn          65.37943445456013        0.03647462540410       -0.04496314959222
C           61.93151773081513        0.03399048247266       -0.02718135888859
C           62.57555174793190       -1.04476748481822       -0.66590504673573
C           61.90059345726369       -2.14178504066567       -1.29309531493071
C           62.85598008180698       -2.97076432423872       -1.78552290828118
C           64.12711793297242       -2.37818392257648       -1.47786828386907
N           63.92055156992731       -1.21182733733978       -0.79140641651266
C           65.37309679902533       -2.92142156057118       -1.81040022188716
C           65.37311018243891       -4.20035032871490       -2.56317425245243
C           64.80921059807534       -4.27683907484797       -3.83866584252068
C           64.80948031819354       -5.46985466004254       -4.53910011506212
C           65.37226354978250       -6.61645149082835       -3.97060929895133
C           65.37047049456439       -7.84682865456990       -4.68653669474050
N           65.36916354911844       -8.84149141167859       -5.26524168333324
C           65.93724251613831       -6.54563667119833       -2.69371428634226
C           65.93867070146149       -5.34777243405048       -2.00195424206178
C           66.62109618583604       -2.37103599096007       -1.49875382951696
C           67.88797400078356       -2.90529112556350       -1.91299306882838
C           68.84744726009582       -2.07489818749457       -1.43052040464156
N           66.83354558388739       -1.22250795761673       -0.78482147670484
C           68.17830501369873       -1.02571898348005       -0.72039224886231
C           68.82718028427732        0.03984414747833       -0.06463704225482
C           68.18353984882765        1.10389795274463        0.59877288256977
C           68.85881192251101        2.15244219973052        1.30402348468000
C           67.90341414256312        2.97893604180756        1.80095485400369
C           66.63278836723390        2.44333645961965        1.40001685715575
N           66.83923750034104        1.29795237230774        0.67929173000353
C           65.38727067011534        2.98875686161808        1.72991484539912
C           65.39312882939615        4.26078082097956        2.49410282802043
C           64.84168663846302        4.32335180219247        3.77590740646114
C           64.84946032057519        5.50840198739706        4.48965828191616
C           65.40743067236244        6.66105313315332        3.92852922102425
C           65.41503794402978        7.88314465870409        4.65839807926857
N           65.41941637160986        8.86958102515176        5.25058780476955
C           65.95894863329258        6.60445906700422        2.64503798120489
C           65.95280800899218        5.41444292491076        1.93981045834794
C           64.13874918767742        2.44461631142218        1.40843803777865
C           62.87003494781485        3.03371742316851        1.73229918184071
C           61.91075467443741        2.20552471535976        1.24613849044106
C           62.58074140373111        1.11216634738202        0.60730424234609
N           63.92671713131976        1.28088669771923        0.71920786514556
H           60.83084666518670       -2.26006925004298       -1.34775834303136
H           62.71232406015395       -3.90503228110196       -2.30377751263283
H           64.38241132954242       -3.38714512350707       -4.28785047217199
H           64.37495097609840       -5.52005249087744       -5.53065682241126
H           66.37196493233736       -7.43305164945812       -2.24872372578573
H           66.36792230826731       -5.29889273471944       -1.00750336540188
H           68.02464256158298       -3.79214002235361       -2.51053710700219
H           69.91522906280078       -2.15437678689987       -1.55469207853581
H           69.92780217669554        2.23396523116523        1.41576068224211
H           68.04556630551201        3.86403411800341        2.39979641576907
H           64.41911191431713        3.42874830412373        4.21936822335800
H           64.42497352795125        5.54759598463814        5.48607004900728
H           66.38950614167820        7.49669490919047        2.20563685582818
H           66.37163932195342        5.37676927795598        0.94043818601705
H           62.73041533819649        3.96554897782188        2.25602903093206
H           60.84149199789901        2.32162833071955        1.31336152047021
Zn          76.30733790210489        0.02937719263321       -0.04991553634697
C           72.86259201783284        0.03619036862454       -0.06855826525884
C           73.50747123504181       -1.19644614257463       -0.29547973907280
C           72.83450221939771       -2.44887823935009       -0.47157224004107
C           73.79058399347518       -3.38987410335954       -0.68033712867718
C           75.05923269854593       -2.71850648009646       -0.63800154094524
N           74.85132607658203       -1.38879503944560       -0.38729058367307
C           76.30487790387375       -3.33342187893385       -0.80816048342091
C           76.30316479112618       -4.77974276893970       -1.13617882084417
C           75.68801135412605       -5.24083167714613       -2.30273842946297
C           75.68769353343147       -6.58835943103134       -2.61492583801302
C           76.30146062970792       -7.50652191037514       -1.75759529294935
C           76.30180788081483       -8.89418930741671       -2.07475533245188
N           76.30264031832185      -10.01625832998783       -2.33031386509108
C           76.91544539779156       -7.05124970592533       -0.58692110821252
C           76.91678146144363       -5.70147735775234       -0.28435310498095
C           77.55196766332801       -2.70761042248521       -0.69702492053892
C           78.82046470446927       -3.33536356510931       -0.94027451439531
C           79.77784576911274       -2.39769351387973       -0.72233052638468
N           77.76083477080563       -1.39891124847265       -0.35494252241258
C           79.10518401422036       -1.18827524413100       -0.35115618948621
C           79.75050440786606        0.02287053495843       -0.03264281922305
C           79.10678570179473        1.23618357044243        0.28087234111569
C           79.78043393935531        2.44171227782530        0.66282567016981
C           78.82449927500338        3.38189831810425        0.87613494441744
C           77.55600944698182        2.75990983524679        0.61831939958788
N           77.76330252065377        1.45192296591877        0.27241504463394
C           76.31003095584609        3.38926136548867        0.72076017202655
C           76.30856281728278        4.83176597841017        1.06522782051850
C           75.68159324560656        5.27881699864363        2.23103969108072
C           75.68139463442613        6.62191807385970        2.56158942158582
C           76.30724266395923        7.54981440560282        1.72364787151979
C           76.30838061904934        8.93307495589176        2.05947959599738
N           76.30742733850913       10.05074989004392        2.33339551335279
C           76.93273374186943        7.10869349213387        0.55369149650893
C           76.93381307033960        5.76314331114974        0.23270529135960
C           75.06415306505858        2.78028670219981        0.53154826408647
C           73.79801883090386        3.45696074605217        0.56134215925421
C           72.84047714920402        2.52095889388144        0.33718609204219
C           73.51009179175422        1.26620854848967        0.16504818245229
N           74.85364831320284        1.45261535450282        0.27255111740778
H           71.76675544254998       -2.58914211797548       -0.42524873459122
H           73.65005560291843       -4.44788382976619       -0.83224922103960
H           75.22186826895555       -4.53055822530000       -2.97636575107159
H           75.21384303658722       -6.93722888217442       -3.52500983349582
H           77.38855814461611       -7.76054849112412        0.08207538298185
H           77.38323956530684       -5.35389861826104        0.63059572713049
H           78.96008054690550       -4.35724737927993       -1.25407415873269
H           80.84622708281341       -2.50712982406291       -0.81687612474816
H           80.84830187833754        2.54683571862335        0.76762221921751
H           78.96514187873763        4.40197939575837        1.19527134128718
H           75.20597212952745        4.56070275086314        2.88957716232317
H           75.19843774766127        6.95971767113967        3.47106269857893
H           77.41515148013620        7.82565956773201       -0.10030541721547
H           77.40923606922382        5.42680412285196       -0.68181203990528
H           73.66032804366151        4.51502195662382        0.71553114225484
H           71.77403066371781        2.66618694689231        0.27804079316057
