490
 energy: -855.670765697577 gnorm: 0.000957208424 xtb: 6.5.1 (b24c23e)
C           71.31613561452322        0.04707219295627        0.05961557446814
C           71.92393553856695        1.27783918565860        0.27085166673817
C           71.27166126536427        2.52709634848881        0.46928042759082
C           72.23373777468996        3.48116462275387        0.64555601710775
C           73.50503696280062        2.84322779204295        0.57087726070590
N           73.26733340091133        1.51929621207129        0.33444797383116
C           74.76826966778536        3.43364838081508        0.69041908418361
C           74.79560140132753        4.88978695493904        0.96632263093510
C           75.38941133383059        5.78441620682525        0.07665789039895
C           75.38327061031829        7.13796553667188        0.37426002343273
N           74.83736948281648        7.63427652071355        1.47990854704545
C           74.27258210251091        6.78817812668452        2.33517140021164
C           74.22411788376549        5.41937930699665        2.12288062798989
C           75.98571295539315        2.75915410901539        0.57365727781598
C           77.28100094260525        3.38676437395120        0.76558266104350
C           78.20467880601909        2.42152709146687        0.57916826297358
N           76.14442106027805        1.43591840721403        0.29409103387242
C           77.47260533673528        1.20549447685992        0.28129338459560
C           78.11352824131946       -0.02217841846545        0.01537314196240
C           77.47854837407500       -1.25022511812626       -0.25209247623840
C           78.12302155009201       -2.47901321247252       -0.55429667839432
C           77.15627035662384       -3.42733390266575       -0.74314886740036
C           75.89027244324254       -2.80746728633213       -0.55137967201833
N           76.13712361187321       -1.49044830461438       -0.26589536060753
C           74.62834247238170       -3.40212661355088       -0.65409611744702
C           74.59624173063709       -4.85262458087590       -0.95419472488537
C           75.18033960373607       -5.78537222979711       -0.09760426384897
C           75.12035223799948       -7.13158257883778       -0.42176448705550
N           74.53249740000811       -7.58601951352939       -1.52374828870003
C           73.97504136089533       -6.70367918442647       -2.34688877908138
C           73.97889058586070       -5.33890372622885       -2.10641739350403
C           73.40996225216156       -2.73326168925617       -0.49442623260655
C           72.10824440482260       -3.38125886515869       -0.54497721466476
C           71.19172855969771       -2.41334191450848       -0.34421908590811
C           71.93230159105515       -1.17725437622832       -0.16220629999134
N           73.26521549068735       -1.40977841996128       -0.24938715866423
H           70.23086632182772        0.05249341633961        0.06983196283082
H           70.20224807154069        2.66533153705981        0.46809062931907
H           72.08223314876604        4.53636463296096        0.80510025462853
H           73.99238763465992        0.81906321056113        0.21969038054244
H           75.83534718131595        5.42636789332352       -0.84355667386052
H           75.83523546878413        7.85429662489026       -0.30555521178252
H           73.83855889909444        7.22305667807630        3.23079891106680
H           73.76402783760210        4.76668829040126        2.85531120827840
H           77.43944937451751        4.42152323617740        1.02246597327937
H           79.27857264085253        2.49719598863147        0.63865818806318
H           79.19096060443465       -2.60921618121393       -0.62301653428195
H           77.30363039738518       -4.46309467453600       -1.00197354383017
H           75.41528539096736       -0.79762723779172       -0.09679751588196
H           75.65827117340882       -5.46296828499981        0.81985673265133
H           75.56347258599645       -7.87661948998100        0.23259250084841
H           73.50445752486270       -7.10514123915465       -3.23962382467686
H           73.52274634410702       -4.65566351616019       -2.81282592951380
H           71.94386103161668       -4.43548483145498       -0.69929153032958
H           70.11683246168054       -2.49728111399720       -0.30950822236432
C          208.43856262118933       -0.06487507900665        0.04385830827750
C          207.83485512107177       -1.26251440875474       -0.31676258390552
C          208.49128834686624       -2.46853371866311       -0.69110118610753
C          207.53232420768700       -3.40306165659141       -0.96305762372666
C          206.25881538922840       -2.80096236656222       -0.75237259295523
N          206.49220672165586       -1.50957441166307       -0.37405862734340
C          204.99735339497650       -3.38551152583510       -0.91222267089141
C          204.97359504606698       -4.81126000244487       -1.31700917735670
C          204.38358264839928       -5.21259089959031       -2.51509943609615
C          204.39322179532920       -6.55563545967414       -2.85674811234145
N          204.93881790052197       -7.49433867549382       -2.08994655734192
C          205.49954852760237       -7.12106063905911       -0.94427728145713
C          205.54453768134343       -5.80247691499493       -0.51948040821417
C          203.77794822408387       -2.73241390489153       -0.71899676265331
C          202.48466715176585       -3.38408828353704       -0.82503241497843
C          201.55800346422441       -2.43863442210766       -0.56599560266383
N          203.61518626368331       -1.42236279396324       -0.38522094718759
C          202.28626815052678       -1.21368739703407       -0.29680776420668
C          201.64174066506419        0.00558645419096       -0.00278944362220
C          202.27320790482818        1.22909273783876        0.29268023018123
C          201.62526367398442        2.46571820213989        0.55240002281887
C          202.58898666094385        3.40232410300658        0.80461750123404
C          203.85640308270382        2.76227780275320        0.71682260016386
N          203.61360287915903        1.45284217877122        0.39529543353844
C          205.11630254290665        3.34269752369659        0.89714337788104
C          205.14387030176186        4.77756151353864        1.26480141533471
C          204.54524898202908        5.23961800417428        2.43662925474586
C          204.60115698655625        6.59153101224137        2.73688611554334
N          205.19858411493041        7.48366082557432        1.95353169859782
C          205.77008872695387        7.05222526506197        0.83366557468340
C          205.77113437893465        5.72041607836363        0.45065109787532
C          206.33642430308629        2.67240130092740        0.75783960813151
C          207.63556922159600        3.27705753046686        1.00988622893186
C          208.55486689275511        2.32050476876748        0.77096395965269
C          207.81849392152694        1.13047280664373        0.38229436690914
N          206.48522796997221        1.37654571255611        0.39556546575512
H          209.52377529693192       -0.07275684358090        0.05794803472155
H          209.56124706287633       -2.59000989196761       -0.74757547238235
H          207.68743268184392       -4.41882893600460       -1.28864860898837
H          205.76477306288544       -0.83269079390093       -0.16943832929027
H          203.93793917400689       -4.48035378675952       -3.17774507150126
H          203.94457039248940       -6.89144081059080       -3.78707184759921
H          205.93318542808973       -7.91090574626376       -0.33785784658161
H          206.00145133612591       -5.54720176943975        0.42930509292542
H          202.32966982519474       -4.42641251772289       -1.05170178847936
H          200.48436824951975       -2.53590501428004       -0.54659927732394
H          200.55723932109112        2.61168967337553        0.53909015540764
H          202.43860855516198        4.44689389156130        1.02314428700355
H          204.33741949219487        0.75655631648821        0.25064544519495
H          204.05918957294486        4.54719098259549        3.11367790432079
H          204.14655509788824        6.97368462146167        3.64623616850769
H          206.24829607802494        7.80485206098631        0.21361476511402
H          206.23865853644151        5.41669100210966       -0.47836343042586
H          207.79643741710950        4.29124927725579        1.33815681763529
H          209.62909025931839        2.38131334272859        0.84841060231672
C           79.51894559787097       -0.03500138362841        0.01404304112061
C           80.74387813498765       -0.04608722951237        0.01345930957004
C           82.08638702681007       -0.05224658005363        0.01134842424066
C           83.31749239029213       -0.05696594729754        0.01317144385554
C           84.65516730650091       -0.05890594170259        0.01503384889158
C           85.88637893696711       -0.05781831359796        0.01612685369561
C           87.22864257498803       -0.05500224715633        0.01577357767361
C           88.45387174721546       -0.04999105115775        0.01197416596923
C           98.14212399954253       -0.04235256362843       -0.05048751535486
C           99.36761579652055       -0.03829304724859       -0.05170878429985
C          100.70975817543953       -0.03522524032898       -0.05027401313420
C          101.94131088874862       -0.03062320664938       -0.04668198852438
C          103.27879641933318       -0.02356549836524       -0.04253551412325
C          104.51047934376882       -0.02174443493187       -0.03831744724790
C          105.85263261651691       -0.01868464552928       -0.03360195415158
C          107.07811367658648       -0.01316196773016       -0.02870555767129
C          116.77401681472406       -0.00919495994109       -0.03256169197456
C          117.99960793936424       -0.00794190681855       -0.03116971006855
C          119.34190901736146       -0.00843675481774       -0.02928828801587
C          120.57355070671379       -0.00883846568589       -0.02743320058664
C          121.91120179222128       -0.00826666948373       -0.02543383114417
C          123.14292080224652       -0.00421617516568       -0.02186700790001
C          124.48525131697838       -0.00374462053062       -0.02020737496661
C          125.71085844768318       -0.00333039876832       -0.01935252836976
C          135.41132209746650       -0.00406832453016       -0.01626023198601
C          136.63695227743003       -0.00291729980654       -0.01659776390195
C          137.97932310219471       -0.00177880877138       -0.01354098893629
C          139.21099253192094        0.00020914190019       -0.01094550872755
C          140.54866582226524       -0.00240754844682       -0.00549775053613
C          141.78034200912825       -0.00649662966647       -0.00477597048594
C          143.12270493328609       -0.00691982926864       -0.00453937296283
C          144.34834102110645       -0.00628107440891       -0.00822991197122
C          154.04813311986101       -0.01547807229336       -0.03613983957271
C          155.27375781609825       -0.01193668993998       -0.03503237808562
C          156.61606342010700       -0.01493846552828       -0.03280557017717
C          157.84767055304090       -0.01259849059846       -0.03098692253423
C          159.18524862030384       -0.01269295255765       -0.02953896191258
C          160.41683651994063       -0.01206686659847       -0.02875347612941
C          161.75912279113038       -0.01142967756339       -0.02501597755216
C          162.98474003443744       -0.00963534278508       -0.01956045929697
C          172.67978528524449       -0.00500787756568       -0.02315470839105
C          173.90526739120924       -0.00262123525911       -0.03208145628269
C          175.24736245389479       -0.00230127833769       -0.04088843198030
C          176.47890675777577       -0.00027276789138       -0.04575566044042
C          177.81633445288574        0.00525082921985       -0.04985726084168
C          179.04791008228418        0.00999702374288       -0.05084290324561
C          180.39000276385556        0.01325260239902       -0.05184324237317
C          181.61547542675859        0.01798011838091       -0.05161464775889
C          191.30167584410108        0.04457489610769        0.02432557491215
C          192.52689585146155        0.04809605730705        0.02249724903027
C          193.86907776580654        0.04740032032681        0.01949428480292
C          195.10030350184505        0.04454672238478        0.01506599102234
C          196.43794271816776        0.04230236640391        0.01040416391197
C          197.66906382469344        0.03487973309259        0.00431586515454
C          199.01146917221732        0.02741400582252        0.00023887673969
C          200.23638815278170        0.01572007245403       -0.00327643060730
C           89.85819047208827       -0.04960135073717        0.00498171956891
C           90.48863342091533       -1.28230093791314        0.26427595603141
C           89.84507997388708       -2.51050240935450        0.56389965744732
C           90.81357774042993       -3.46117290837867        0.73755018020973
C           92.07735316734639       -2.84119733193975        0.53881179115821
N           91.83025435574147       -1.52259033170106        0.26545431806246
C           93.33863303152214       -3.44413305066845        0.62136410084120
C           93.35175882302254       -4.89988505594062        0.90455376365019
C           93.94881096147752       -5.40648514207471        2.05831633325725
C           93.92991855400008       -6.77371331703417        2.28439935487476
N           93.36878113876610       -7.63889705754532        1.44583183672382
C           92.80080146697601       -7.16478001092517        0.34181231386803
C           92.76427694834452       -5.81446476681549        0.03117541150591
C           94.56479452397582       -2.79691318840077        0.46194078475225
C           95.84767536062529       -3.47671960220389        0.49708498238525
C           96.78848856569290       -2.52798881162421        0.31126188435662
N           94.74715227816648       -1.46605849784580        0.23804873138925
C           96.07897505108949       -1.27369369010730        0.15457015648677
C           96.73793600084795       -0.04312228702246       -0.04517753278084
C           96.10758684343149        1.20150731544431       -0.24098384402596
C           96.75173391847980        2.45308596575935       -0.41816024223260
C           95.78310112383315        3.40425632337838       -0.58789289222921
C           94.51831397643075        2.75789726926890       -0.52787782753866
N           94.76549248894321        1.42913274063164       -0.30765508255302
C           93.25699330886280        3.35366408973540       -0.64782463971940
C           93.24230839883623        4.81319551018210       -0.91137660470355
C           92.66691643367585        5.70513411029271       -0.00716133809353
C           92.68028289892445        7.06093814047692       -0.29421042877609
N           93.21585282539766        7.56128348478159       -1.40300851828908
C           93.76330272198581        6.71767898440756       -2.27180727798034
C           93.80379316875577        5.34683886529998       -2.07072594616153
C           92.03012342097504        2.69659382313242       -0.54163776275302
C           90.74594458624294        3.34759085925649       -0.73200379453826
C           89.80520243213743        2.39803944367948       -0.55021208464367
C           90.51601647955546        1.16915646144587       -0.25766500212111
N           91.84860387967016        1.37509346553754       -0.26907089827686
H           88.77767558782615       -2.64008416629922        0.64098146754577
H           90.66714918840448       -4.49858873804872        0.98997680783200
H           92.54713412754697       -0.82551259715461        0.09399635941334
H           94.40743902194914       -4.73708381406196        2.77622552534147
H           94.38412131216076       -7.19132941360851        3.17815688430191
H           92.35389980374089       -7.89632843945448       -0.32503542716131
H           92.30027225328553       -5.47506811342017       -0.88729742157321
H           95.98682627982676       -4.53703419846898        0.63173949893453
H           97.86012805658680       -2.64028116038034        0.27232922974747
H           97.81977510966155        2.59901458417457       -0.41006069545750
H           95.92976138900082        4.46199665646366       -0.73315313668874
H           94.04820487569086        0.71932038335150       -0.20318358570807
H           92.22872466683319        5.34293351267742        0.91513553305011
H           92.24247140644411        7.77540594602362        0.39670034329232
H           94.18925216398233        7.15617248065405       -3.16949716114157
H           94.25013214750352        4.69613283989749       -2.81331149705178
H           90.60560484814071        4.38610660367176       -0.98404529203919
H           88.73272854621614        2.49196742316898       -0.60940575233560
C          108.48225742749798       -0.01249784804398       -0.02455424512399
C          109.11177316952315       -1.24214922869048        0.25220341950156
C          108.46764538686280       -2.46818313018259        0.55912349613486
C          109.43609927575250       -3.41598138117763        0.74822130058537
C          110.70055157459724       -2.79657120757464        0.55175581353185
N          110.45364104903584       -1.48078234994213        0.26446876326101
C          111.96147934515443       -3.39832639598518        0.64692878163137
C          111.97317455740098       -4.85165277524178        0.94309023605696
C          112.56207920188317       -5.34762009265568        2.10561258370731
C          112.54365519919219       -6.71296976988374        2.34286201735675
N          111.99053719788400       -7.58597209377478        1.50709354396503
C          111.43016616308444       -7.12197536599397        0.39493753877332
C          111.39373274797458       -5.77431004230754        0.07290505505875
C          113.18931208290778       -2.75395119184469        0.48802754351001
C          114.47081180882857       -3.43575764773564        0.53511469495191
C          115.41430967577698       -2.49053215307311        0.34505473015397
N          113.37528035971673       -1.42547430743055        0.25363355775474
C          114.70796972118498       -1.23638354955318        0.17431755242361
C          115.36972486232396       -0.00832585423998       -0.03176176457924
C          114.74018100812917        1.23525850185388       -0.23711027464867
C          115.38423955371249        2.48649476696849       -0.41609660563425
C          114.41567231927452        3.43606587530454       -0.59537442919974
C          113.15108042443877        2.78886496395872       -0.54008448088393
N          113.39818619430494        1.46143801588469       -0.31218951693111
C          111.89016022729390        3.38315830315466       -0.67283967551819
C          111.87744583443093        4.84162529478284       -0.94306164585703
C          111.29600504270159        5.73736156341181       -0.04651633240382
C          111.31159635051711        7.09197340628053       -0.33905908452636
N          111.85479808847197        7.58761615462141       -1.44624342343647
C          112.40799231006967        6.74034873392154       -2.30780214869923
C          112.44689310567408        5.37033848385618       -2.10076440545061
C          110.66215661691427        2.72714495070559       -0.57432662572143
C          109.38042853380414        3.37791364739449       -0.78169401522891
C          108.43697206090349        2.43048596944528       -0.60272791675548
C          109.14362061585797        1.20323116589040       -0.29394985870291
N          110.47642503567400        1.40761312487936       -0.29436126934368
H          107.39990074718399       -2.59835641116759        0.63023258810663
H          109.28917580935700       -4.45117122570549        1.00935251344720
H          111.17043706561833       -0.78416661642170        0.09079047771229
H          113.01438011231593       -4.67153636622680        2.82127089697955
H          112.99176664046799       -7.12244169909902        3.24343169646574
H          110.98973978467960       -7.85977632667860       -0.26931082446232
H          110.93624487922847       -5.44324143572893       -0.85184954712517
H          114.60741486927523       -4.49506984090196        0.67982568250913
H          116.48588972303826       -2.60517917490346        0.31191746020233
H          116.45209851213596        2.63338349971146       -0.40253308681090
H          114.56235267623505        4.49328997366748       -0.74430826321708
H          112.68136155148534        0.75102291606541       -0.20865164587746
H          110.85135041040628        5.37900108165574        0.87418784715978
H          110.86929748835637        7.80937651983031        0.34592665399909
H          112.84006032227852        7.17505761531759       -3.20440268763485
H          112.89823996086729        4.71649131614991       -2.83753540923160
H          109.24363582495928        4.41478344425469       -1.04233861915754
H          107.36521390606856        2.52491867970933       -0.67318296163835
C          127.11512544228302       -0.00428210228313       -0.01609382319813
C          127.74460713640177       -1.23404259268437        0.26046083156170
C          127.10087425911996       -2.46043734586384        0.56672862619885
C          128.06964917236394       -3.40797979705308        0.75542918063228
C          129.33401628937895       -2.78804675202559        0.55970690462950
N          129.08661547627426       -1.47225124764696        0.27276811002786
C          130.59483293992440       -3.38984500715812        0.65593890380532
C          130.60556989557438       -4.84332137830612        0.95197341170318
C          131.18982165016641       -5.33940782369121        2.11675679556871
C          131.17035365792501       -6.70480058260561        2.35374453023217
N          130.62065240782340       -7.57765037814208        1.51557682941063
C          130.06488670060835       -7.11351164832243        0.40117521246465
C          130.02969645174417       -5.76578310672170        0.07925456086744
C          131.82341280596478       -2.74643639117899        0.49875272327648
C          133.10424677786330       -3.42938846282014        0.54864020032363
C          134.04899817982718       -2.48514170971396        0.35990589653842
N          132.01104629270043       -1.41832093006671        0.26392495125355
C          133.34412649328522       -1.23049345122735        0.18722124895752
C          134.00698329156035       -0.00303798997709       -0.01864319678682
C          133.37747716171381        1.24018397355508       -0.22653902349378
C          134.02119448194577        2.49139637464834       -0.40654687160781
C          133.05238769510575        3.44021554570344       -0.58851759947421
C          131.78796399257726        2.79254324232135       -0.53394924595339
N          132.03541954171428        1.46561852831895       -0.30377357091386
C          130.52713810944454        3.38667867453819       -0.66908924030424
C          130.51597981344628        4.84464756011654       -0.94233884282444
C          129.93514308240009        5.74308000955608       -0.04812939640038
C          129.95329874411146        7.09709912826145       -0.34332485919252
N          130.49848692693737        7.58968291982212       -1.45088811543226
C          131.05102039876363        6.73981141470420       -2.31030911527468
C          131.08733019070985        5.37015237518264       -2.10058292941390
C          129.29849895052718        2.73193514790851       -0.57008482854192
C          128.01755344198725        3.38393530795763       -0.77870563459622
C          127.07283427800959        2.43813557897614       -0.59780441682350
C          127.77784949642003        1.21047185366605       -0.28701636148733
N          129.11095509649371        1.41314239832825       -0.28767225945200
H          126.03315850652979       -2.59101664659918        0.63750801297619
H          127.92310011687238       -4.44340395935424        1.01584517140018
H          129.80291509804516       -0.77503532203500        0.09944704747834
H          131.63935805657346       -4.66343071244964        2.83425504417697
H          131.61469411716925       -7.11441995895216        3.25611327302854
H          129.62726331335284       -7.85121901510085       -0.26502261781365
H          129.57585920547842       -5.43446536564555       -0.84720640634912
H          133.23961252350057       -4.48871650684645        0.69440230542289
H          135.12055352950614       -2.60070524276829        0.32892912236998
H          135.08896029422499        2.63882470807476       -0.39180327775051
H          133.19886130517858        4.49728530252715       -0.73871045377353
H          131.31909841095251        0.75472275504392       -0.20009330667446
H          129.48910916033952        5.38729617587852        0.87290513197258
H          129.51155928352250        7.81658284329918        0.33983474441325
H          131.48490293889617        7.17205073693706       -3.20722555858661
H          131.53839543043776        4.71409510471767       -2.83556159353517
H          127.88207807550933        4.42047689712445       -1.04133961981866
H          126.00120197783728        2.53386852754294       -0.66844528125235
C          145.75267140195001       -0.00889478751438       -0.00983307935405
C          146.38189994731846       -1.23923174434883        0.26489861972429
C          145.73805827402828       -2.46510526711964        0.57314882094322
C          146.70657983296041       -3.41339162619373        0.75946268438128
C          147.97090689286063       -2.79447460964701        0.56039853492697
N          147.72375262133122       -1.47854377750997        0.27366042223087
C          149.23154459716682       -3.39698899869804        0.65401698901033
C          149.24288406442136       -4.85001746009182        0.95234157082240
C          149.82965147813547       -5.34373059642335        2.11689406013145
C          149.81177624246001       -6.70872934294752        2.35617499433672
N          149.26136269086567       -7.58339714560381        1.52036421079172
C          148.70313398314644       -7.12151979968599        0.40626525211053
C          148.66611452008499       -5.77432307883507        0.08222329380440
C          150.46008641401031       -2.75448012517234        0.49284192711308
C          151.74064191558733       -3.43815132212809        0.54001820840637
C          152.68541645926044       -2.49468785129423        0.34755851395571
N          150.64782738667159       -1.42671847382429        0.25627364287170
C          151.98077884925411       -1.23984472768502        0.17538351942829
C          152.64386564768304       -0.01306837890881       -0.03347580180422
C          152.01494830555581        1.23064061354047       -0.23999870716472
C          152.65934851563287        2.48119309262345       -0.42207651629857
C          151.69091522151268        3.43093681104810       -0.60121121081357
C          150.42605366119031        2.78447983010132       -0.54270041495412
N          150.67290076476095        1.45735401680780       -0.31317082732318
C          149.16526217815692        3.37964770124396       -0.67367997953627
C          149.15436797850606        4.83778121827204       -0.94592739684103
C          148.57640652005765        5.73572545977057       -0.04934785150243
C          148.59484916319786        7.09003606930382       -0.34311579188853
N          149.13774223655324        7.58340216146239       -1.45146417148932
C          149.68754794103802        6.73403107773338       -2.31312251795659
C          149.72329735470487        5.36410184291501       -2.10499504895020
C          147.93651520716412        2.72570633093925       -0.57077857245968
C          146.65539074442555        3.37861817966488       -0.77535165046162
C          145.71056393555943        2.43354091640504       -0.59132043228904
C          146.41564367975803        1.20532243823398       -0.28281506086950
N          147.74888767643159        1.40699254723721       -0.28789079516214
H          144.67043064781581       -2.59485499919235        0.64673080138579
H          146.55998481848354       -4.44872382134332        1.02025012424902
H          148.44022240318225       -0.78198121174976        0.09840144800325
H          150.28010197610743       -4.66618698570554        2.83234045236382
H          150.25816599459688       -7.11650240118831        3.25836993673752
H          148.26507180296468       -7.86071372710147       -0.25799383790819
H          148.21035803555250       -5.44493661379985       -0.84397991400850
H          151.87580445503875       -4.49739829896970        0.68654580528786
H          153.75681553593080       -2.61090274924270        0.31374731851703
H          153.72729532146653        2.62759537564438       -0.41049424161548
H          151.83800608401017        4.48784068808900       -0.75195516564129
H          149.95615541449317        0.74723465670950       -0.20712181326745
H          148.13243059283312        5.37926436076489        0.87241907218127
H          148.15530235490320        7.80910088588476        0.34189496944250
H          150.11963601897133        7.16692691548400       -3.21059075191376
H          150.17208106476326        4.70855080946082       -2.84182098381556
H          146.51985185135331        4.41522510159080       -1.03768072195999
H          144.63878706127920        2.53010613616661       -0.65844646328501
C          164.38903236216768       -0.00965888321702       -0.01556028275997
C          165.01848613519820       -1.23862921549779        0.26458181114644
C          164.37418813791970       -2.46457663069074        0.57177343200361
C          165.34262729393316       -3.41111541992238        0.76707647703609
C          166.60738500760181       -2.79112161220703        0.57443391816410
N          166.36047663819937       -1.47627594444036        0.28235092396787
C          167.86834345488026       -3.39131145253352        0.67702118363251
C          167.88155212864936       -4.84310050554682        0.98084575383130
C          168.46557013307881       -5.33106552068920        2.14921730748345
C          168.45067457509487       -6.69524586062301        2.39326481957751
N          167.90566330071226       -7.57440588208286        1.55861428734822
C          167.34998648679073       -7.11800965102390        0.44098743371685
C          167.31035479753081       -5.77207713878256        0.11203506043291
C          169.09621268413844       -2.74698183222175        0.51786233345907
C          170.37790574623216       -3.42806323769134        0.56996127967124
C          171.32112239810388       -2.48385202141871        0.37356746964583
N          169.28171719612257       -1.41993647638577        0.27586663945393
C          170.61438594708710       -1.23097704952457        0.19556277014889
C          171.27567891491651       -0.00393936076833       -0.01671462346862
C          170.64638030769481        1.23976867667116       -0.22174534410396
C          171.29082664273227        2.49087464769836       -0.39976200347253
C          170.32246278128693        3.44100605171580       -0.57723361173121
C          169.05776637344886        2.79397768051424       -0.52276531354184
N          169.30446251041579        1.46640168572945       -0.29587246870022
C          167.79678873237893        3.38796900268155       -0.65710594683611
C          167.78471078875847        4.84657352526182       -0.92625385017870
C          167.19953371037349        5.74147464619427       -0.03130328018977
C          167.21746353973907        7.09648482332667       -0.32186881666696
N          167.76647706148930        7.59335486046405       -1.42563086146846
C          168.32311379719945        6.74690159978828       -2.28578248264816
C          168.35989661865361        5.37657326437552       -2.08057566733858
C          166.56906234165325        2.73106257740412       -0.56166031205378
C          165.28752093086322        3.38080106038019       -0.77320184842572
C          164.34418613469504        2.43280675400584       -0.59662502161497
C          165.05066375664441        1.20612863890365       -0.28492563152324
N          166.38330699366290        1.41139373790446       -0.28179130941749
H          163.30626169460535       -2.59550752046788        0.63861373298983
H          165.19565408343018       -4.44592171687587        1.02972385759525
H          167.07749642242493       -0.77953948590628        0.11003266006538
H          168.91173193896449       -4.64975480301145        2.86377797996617
H          168.89514527004059       -7.09859506430313        3.29839371992739
H          166.91644491562957       -7.86077344784263       -0.22225490689589
H          166.85715781034739       -5.44728366618983       -0.81704016572530
H          170.51483274543509       -4.48632479087695        0.72186954049938
H          172.39276863956820       -2.59825337872284        0.34155161482282
H          172.35872573965361        2.63747029175563       -0.38618818089680
H          170.46959763569427        4.49839657276299       -0.72444895895546
H          168.58745112453110        0.75609470374029       -0.19293950840700
H          166.75047433340598        5.38216710079164        0.88688991446487
H          166.77238409861209        7.81322469988780        0.36200735594626
H          168.76009473340852        7.18258787786420       -3.17952570475279
H          168.81432837361814        4.72350405770362       -2.81614339122086
H          165.15092020367197        4.41740032163345       -1.03503737060674
H          163.27261234666744        2.52650774680429       -0.67063103323478
C          183.01960347753624        0.02072165074519       -0.04277425451486
C          183.64872268571744       -1.21038503575488        0.22812666735453
C          183.00314926248745       -2.44038554941858        0.51645010877808
C          183.97068850392930       -3.38932220739163        0.70398144537738
C          185.23619226696917       -2.76651643099299        0.52609296529256
N          184.99054355597306       -1.44794494524823        0.24993055417258
C          186.49696353841148       -3.36679353329408        0.62803527262408
C          186.51069015284440       -4.82295333482591        0.90924349165211
C          187.08980971343340       -5.32885299428565        2.07242582495794
C          187.07492808857458       -6.69672618315360        2.29485340440864
N          186.53453503337451       -7.56307050331641        1.44394737386082
C          185.98370119068949       -7.08954128027630        0.33104597865639
C          185.94434196314191       -5.73862761357124        0.02325251478460
C          187.72413372405606       -2.71660825843697        0.48795373294648
C          189.00778971135935       -3.39381162423491        0.53967064170660
C          189.94896464468042       -2.44291666986496        0.36724166937802
N          187.90629126865716       -1.38521871363895        0.26931587224032
C          189.23891076482911       -1.18988734012540        0.20368361103072
C          189.89743257085408        0.04277090350042        0.01914659051201
C          189.26787148625283        1.28808260025851       -0.17363436378455
C          189.91224107835401        2.54247229447939       -0.32754355138505
C          188.94471224279434        3.49254579390265       -0.50989366324099
C          187.68087015936050        2.84229999063826       -0.48207014222368
N          187.92671943844485        1.51310838460288       -0.26463325777196
C          186.42048028228041        3.43414512860841       -0.63150257719736
C          186.40879373023134        4.89367792084833       -0.89446858815359
C          185.80449947264896        5.78393644403935       -0.00763412348976
C          185.82475008795672        7.14006147555184       -0.29287808035737
N          186.39366347483355        7.64241050736839       -1.38401677163301
C          186.96867874751459        6.80043263080977       -2.23648197605339
C          187.00468107629473        5.42948821381744       -2.03564745726962
C          185.19419056506521        2.77221535463320       -0.55573807202565
C          183.91231143003802        3.41771487445710       -0.77754920732028
C          182.97106099356861        2.46547382660776       -0.61302909833636
C          183.67942805770025        1.24003890067305       -0.30031466531386
N          185.01100501107129        1.45035760532565       -0.28413923260692
H          181.93493487469394       -2.57241729224567        0.57605755120210
H          183.82274258432759       -4.42755564966427        0.95217914465897
H          185.70883461999759       -0.74941935000713        0.09066920795211
H          187.53195321118483       -4.65859027832636        2.79981784381918
H          187.51551385447897       -7.11395485584353        3.19558415643305
H          185.55384218142950       -7.82208731798942       -0.34582507674501
H          185.49512012656899       -5.39956259988571       -0.90265532103291
H          189.14742870894813       -4.45394057393978        0.67521315910315
H          191.02127607965747       -2.55280248065530        0.34280865568652
H          190.97949306562674        2.69101099879241       -0.29589887783975
H          189.09173569418101        4.55178942689374       -0.64328289535831
H          187.20924646328825        0.80072574625732       -0.18114229526208
H          185.33918491004738        5.42036494739879        0.90072904781889
H          185.36504255169314        7.85323465758472        0.38503108394083
H          187.42180153290471        7.24044725203386       -3.12002141611752
H          187.47470280796705        4.78023611769100       -2.76478554349761
H          183.77418875248523        4.45473556231458       -1.03693231625585
H          181.89987085015417        2.55526676974937       -0.69687551913454
