494
 energy: -864.124351908581 gnorm: 0.000416454484 xtb: 6.5.1 (b24c23e)
C          103.90409487172235        0.07439618472923        0.00943561360386
C          104.51291455366810        1.22326581762637       -0.47900133255027
C          103.86122735134954        2.37528177477322       -1.00178751441590
C          104.82324974178687        3.27717460063404       -1.36045819982438
C          106.09390689145545        2.71046346180752       -1.05623109549009
N          105.85576899460530        1.46838948717702       -0.53927888527236
C          107.35652136710614        3.28414280668631       -1.24544287399782
C          107.38931822705268        4.66136380433156       -1.79465676329784
C          108.03831266647788        4.92525519299811       -3.00160606138488
C          108.06567507534517        6.20790893718674       -3.52623562272970
C          107.44502352058123        7.24892969856789       -2.83958832224052
O          107.44893813526011        8.52045783750724       -3.31622898798842
C          106.79717267257776        7.00031184147033       -1.63094815606525
C          106.76911847411809        5.71520577015857       -1.11881781520363
C          108.57083463880946        2.65542856600285       -0.95702677039431
C          109.86633804538445        3.29844147217888       -1.08471406311687
C          110.78708077728332        2.37811120994144       -0.73014770774784
N          108.72564478478904        1.37866134671221       -0.51122273997972
C          110.05291716270173        1.17794446877764       -0.37934716309183
C          110.68980770512674       -0.01692105011143        0.01058778438286
C          110.05470344129961       -1.20947752080499        0.40390250267877
C          110.69818848156646       -2.42228817440529        0.76685599761378
C          109.73184894720920       -3.32476583201952        1.11576321779285
C          108.46725105574058       -2.68658651558422        0.98540090321221
N          108.71405827619689       -1.41462067481616        0.54021298732806
C          107.20658223702752       -3.23670619915382        1.24207062881358
C          107.17473275518797       -4.62306383921502        1.76634895083602
C          107.80429015025759       -4.94298756752292        2.97214391668949
C          107.77243583175142       -6.23409263074048        3.46832809080578
C          107.11147752752544       -7.23260655890851        2.75522268828104
O          107.10263795591479       -8.48958230740172        3.26884030179456
C          106.48296040016966       -6.93002805462704        1.54946895577575
C          106.51397170332297       -5.63198529039095        1.06419060778857
C          105.99104773493008       -2.57350692412597        1.04029021688061
C          104.68882493729694       -3.13315138152756        1.36740226509997
C          103.77486950860633       -2.20575621164457        1.01690404518220
C          104.51788867820567       -1.07566779563345        0.48834691889126
N          105.84927833781379       -1.32784753397827        0.52857504751142
H          102.81873202782228        0.08500753508355        0.01246277837235
H          102.79227184490898        2.48428912678920       -1.09330482888982
H          104.67151845014492        4.24733203217382       -1.80513158421074
H          106.58110983771080        0.82219077485681       -0.24684552961880
H          108.51044705225637        4.11351470436004       -3.54372548759766
H          108.56558370763261        6.40512071733588       -4.46851675909520
H          107.92890640918031        8.58140237004808       -4.15304837433899
H          106.32369462435740        7.82011973006838       -1.10497256095591
H          106.27793357335982        5.52612769083041       -0.17074688315338
H          110.02723730841683        4.32033390411722       -1.38795595208932
H          111.86003439734191        2.47903959001312       -0.69381355840500
H          111.76514864494365       -2.57648916837628        0.75457138094961
H          109.87873795020418       -4.34628080814715        1.42654225513322
H          107.99242829562307       -0.73004213191254        0.33967227725528
H          108.30565211589483       -4.16387991602190        3.53557690435475
H          108.25260997205727       -6.48236074268129        4.40678823685766
H          106.61472249422130       -9.09950623925792        2.69937703330355
H          105.97373938193407       -7.71124178353662        0.99530283437159
H          106.03597170265047       -5.40118722728716        0.11868695673750
H          104.52161058019578       -4.09860004563822        1.81733922316230
H          102.70045932984173       -2.24929896980181        1.10449146152154
C          204.87257794560603        0.02408622080626        0.09129312541420
C          204.26574749038508       -1.04690195474358        0.73446553107425
C          204.92029696948580       -2.13957662237663        1.36924672311489
C          203.95998561271006       -2.96789435499382        1.87813436963857
C          202.68722615484108       -2.40225829362717        1.58033412211258
N          202.92292056434522       -1.25148254906909        0.88260286651706
C          201.42555517571861       -2.91216921480874        1.90714752825513
C          201.39787734761782       -4.16790461129367        2.69627225611823
C          200.78574455010923       -5.31311253683429        2.18554772885870
C          200.76295685634551       -6.49057254706745        2.91669617597969
C          201.35119208443240       -6.53223859637860        4.17867806306280
O          201.34996018924778       -7.66370244762806        4.92961030039462
C          201.96294448693351       -5.39473701646784        4.70226009142927
C          201.98670054559884       -4.22603846201514        3.96195940269841
C          200.20894823650866       -2.32549287946170        1.54827248992122
C          198.91195223210104       -2.83745758563960        1.95343135960785
C          197.98999994804174       -2.00890407213162        1.42090901209363
N          200.05314649110471       -1.19828094920609        0.80167854822233
C          198.72451813669093       -0.98667944767218        0.70083952748705
C          198.08721996598882        0.06362512817541        0.01204233478299
C          198.71920253775056        1.11636090634060       -0.67418662409956
C          198.07209923760900        2.14807157535215       -1.40518519964742
C          199.03670422493263        2.96398669838814       -1.92785094858736
C          200.30432041648666        2.46154463451926       -1.52206091124740
N          200.06026446060247        1.34057600199300       -0.77308739224899
C          201.56498913513508        2.98072851579567       -1.83554415451410
C          201.59738637108273        4.21870183749256       -2.65105842258969
C          200.99648833001694        5.39365231149993       -2.19232148347560
C          201.02861620504808        6.54979706992807       -2.95182713351938
C          201.66084757199960        6.54391481481018       -4.19383094688411
O          201.67012854044708        7.69442633863594       -4.91512692890856
C          202.26146682595154        5.37918227602961       -4.66610586013560
C          202.23049156652920        4.22797989033369       -3.89474785887002
C          202.78191050920961        2.41518254177917       -1.43881858493475
C          204.08436848876792        3.00138088977357       -1.71461198386297
C          204.99955191154135        2.17119748965018       -1.17484658689798
C          204.25728702300603        1.08420412472593       -0.56151694225393
N          202.92517156871793        1.26907906421221       -0.73222031061636
H          205.95792506573591        0.02360099153913        0.10416372084789
H          205.99004218908269       -2.26726926486943        1.41688325350887
H          204.11394471073831       -3.89520452535996        2.40574394564144
H          202.19599259242290       -0.64222536918551        0.52257246889539
H          200.33906124990736       -5.28596193212241        1.19790093139551
H          200.29149462413633       -7.37944778218083        2.51132964263227
H          200.89583834470093       -8.38669325636736        4.47643498775899
H          202.41185897887289       -5.43987662472239        5.68682444682822
H          202.44978992345480       -3.33752568810680        4.37664727704908
H          198.75032740423097       -3.70342352689337        2.57476209909577
H          196.91578932597059       -2.05706314131162        1.50135309495780
H          197.00391537437042        2.24029810959813       -1.51831675333911
H          198.88667431171470        3.83171530662372       -2.54927025027567
H          200.78424686147389        0.75855174228738       -0.36476165867150
H          200.51755951733276        5.40388061101435       -1.21953367281829
H          200.57045966340308        7.46386004155983       -2.59477433425206
H          202.13651562142269        7.58039956147153       -5.75409999095867
H          202.74883952879171        5.37773624412495       -5.63522027950682
H          202.68680781096924        3.31855126150869       -4.26955125158044
H          204.25072025933463        3.93008713584562       -2.23648398577938
H          206.07446625749699        2.26308333746128       -1.16841573927912
C          113.31936953390567       -0.04789405566537        0.01175117830988
C          112.09763066317944       -0.03344071187329        0.01008351617076
C          114.67011741969290       -0.05655333521600        0.01102741791087
C          115.89204353497141       -0.05853976851431        0.01314178034956
C          126.78402744213487       -0.02569323120716       -0.02363926510910
C          125.56107383042514       -0.02707998314767       -0.02732023425517
C          128.13244490514111       -0.02744737517269       -0.01924913441885
C          129.35542633579954       -0.02360113160190       -0.01327009859740
C          140.24808699656535        0.01332330295732       -0.01781002890635
C          139.02504434191579        0.01690448352906       -0.02527621936521
C          141.59634710965761        0.00570039260275       -0.00957783172921
C          142.81940242249070        0.00105521182580       -0.00258532258698
C          153.71201379102754        0.01575062347276       -0.00483633295948
C          152.48893259095479        0.01966868116562       -0.00691195946764
C          155.06031069133854        0.01014458822598       -0.00271081852092
C          156.28340215922893        0.00563047431725       -0.00048408757413
C          167.17633478096405        0.01792838820657       -0.03128494247764
C          165.95329876947034        0.01826937973127       -0.03874232961397
C          168.52462353229055        0.01379204240048       -0.02265124418465
C          169.74763859825225        0.01290062935879       -0.01052305056815
C          180.64092801363580        0.01106731846215        0.02590751300108
C          179.41797056197299        0.00769736288002        0.01793103675978
C          181.98944201694167        0.01154406153551        0.03244580651638
C          183.21236007751176        0.01831194296788        0.03746831286028
C          194.10466298722417        0.08384155041079       -0.01573959391375
C          192.88318983060705        0.08304657810934       -0.02182697320060
C          195.45653625367578        0.08008908765364       -0.00892953427855
C          196.67786337783593        0.07207703769290       -0.00020369227820
C          117.29915000551890       -0.06228559164967        0.01978961984949
C          117.92432963292165       -1.19178606830833       -0.54122939827855
C          117.27312882811174       -2.30026887942447       -1.14147487779405
C          118.23674552965778       -3.15343031901007       -1.60581097579794
C          119.50564638860520       -2.59454814803749       -1.29279349540233
N          119.26567324688129       -1.40914106716555       -0.65058361790284
C          120.76461643305335       -3.12125184329715       -1.60818158809666
C          120.77683514913292       -4.42957307274931       -2.30866831290060
C          121.33259636646419       -4.54245045296213       -3.58357022993375
C          121.34082345885010       -5.75901400522617       -4.24784401498786
C          120.79535425528920       -6.88476399243455       -3.63503199868377
O          120.78429831227362       -8.09610098071632       -4.24844094914712
C          120.24094778744953       -6.78675242675558       -2.36010989298845
C          120.23048956513824       -5.56637564707626       -1.70806192763616
C          121.98984183149345       -2.51674138648633       -1.32221239839905
C          123.27678432395668       -3.12622492581826       -1.60548825112477
C          124.21497448588218       -2.26031147400701       -1.16900766929253
N          122.16820736475215       -1.31018250963131       -0.71567324603055
C          123.49999849963734       -1.12857563657048       -0.61351260787463
C          124.15668505766955       -0.02358447910713       -0.03398635605648
C          123.53052088469647        1.08961312650827        0.56026828263119
C          124.18107680506509        2.18042746456147        1.19224853786928
C          123.21714841696712        3.03401371076005        1.65551729126699
C          121.94901333266053        2.49323523664481        1.30959922174484
N          122.18983898010890        1.31493515258046        0.65387783372431
C          120.68974460998004        3.03371448904273        1.59780289260228
C          120.67501320374757        4.34066807318797        2.29997966475435
C          121.25782038816658        5.47005763786173        1.71980479137165
C          121.24339605251735        6.68978271903845        2.37291516552055
C          120.64816096832438        6.79468980870940        3.62874982625434
O          120.65615702982221        8.00514687278704        4.24384678505932
C          120.06625396655774        5.67637533142310        4.22139943331150
C          120.07867564322876        4.46059408816209        3.55591699758067
C          119.46421999991358        2.44315974033957        1.28220786894611
C          118.17814170413824        3.07057051982636        1.52849125627606
C          117.24003764251934        2.20686239036090        1.08769822823940
C          117.95417458449985        1.05810422534614        0.56721326256995
N          119.28660092186378        1.23104424962030        0.68889595576565
H          116.20385416308977       -2.41677104529369       -1.21437296053964
H          118.08302908559504       -4.08183662402966       -2.13112813438636
H          119.98802563156069       -0.77763579315669       -0.32079456414923
H          121.74628912498513       -3.66420276226663       -4.06653288920103
H          121.76777276688124       -5.83884678108250       -5.24183557557704
H          121.19687162525054       -8.05266207370677       -5.12153183390745
H          119.82505266528483       -7.67124217361650       -1.89363474515546
H          119.81132895460020       -5.49414689456014       -0.71063163380749
H          123.42177736035218       -4.09339853659403       -2.05887154415393
H          125.28836730372375       -2.35868583803279       -1.19968135031584
H          125.24993835310866        2.28650221852084        1.28442228225499
H          123.36996012213321        3.95147449579856        2.19997879014019
H          121.46784552567549        0.69594043583772        0.30050178895564
H          121.70849804996249        5.39290361586516        0.73658733137595
H          121.68727514430081        7.56858554668869        1.92173843403624
H          120.21359988116225        7.96702917853684        5.10244238710233
H          119.60757663818315        5.76150235064145        5.20069995883732
H          119.63622372760264        3.58809298654498        4.02355084747784
H          118.03409819468452        4.04683030085589        1.96227101048442
H          116.16734590139563        2.31625337229723        1.09528325320257
C          130.75968244891942       -0.02518227637975       -0.00443611575822
C          131.38893143011506       -1.12326650856587       -0.62342640951070
C          130.74149790949011       -2.20190513786714       -1.27856880619095
C          131.70816133701632       -3.03854207511051       -1.76695361163169
C          132.97459439060484       -2.49874962123110       -1.41438604552276
N          132.73047117896240       -1.33906861875667       -0.72778757990569
C          134.23563139570135       -3.02176009753416       -1.72826553351901
C          134.25221025963228       -4.30898051914694       -2.46633302116206
C          134.83282445151397       -4.39030288756272       -3.73257129045998
C          134.84826556992545       -5.58842428022547       -4.42939726034251
C          134.28512236503079       -6.72740157026158       -3.85840512791181
O          134.28120173875712       -7.92175266436318       -4.50426764191290
C          133.70498309590420       -6.66077076962323       -2.59292660683133
C          133.68749752796364       -5.45851542233295       -1.90829075612919
C          135.45965743670618       -2.43320820968183       -1.40629434437081
C          136.74743601081710       -3.04111409719272       -1.68868631141327
C          137.68374673977610       -2.18991416981491       -1.22028333074175
N          135.63544265227563       -1.24345972556685       -0.76643042372886
C          136.96662850589541       -1.06929334756996       -0.64567329065784
C          137.62093914124591        0.02176036855877       -0.03745493229830
C          136.99169880551054        1.12052779341014        0.58032187863522
C          137.63902878757122        2.19931811918391        1.23537309142606
C          136.67230668618103        3.03709999649642        1.72163819771501
C          135.40588424911095        2.49761646773067        1.36837278312585
N          135.65019753874662        1.33717315736901        0.68297798191869
C          134.14490973812804        3.02108666444966        1.68147471239305
C          134.12877278483734        4.30926846868683        2.41796151633463
C          134.69310748969380        5.45789198868472        1.85763582580779
C          134.67676743540289        6.66113442425166        2.54054156596914
C          134.09827102352480        6.72969642294265        3.80667074180478
O          134.10347781340454        7.92492394451891        4.45087769086821
C          133.53550763733142        5.59167164058898        4.37992127222738
C          133.54969801387389        4.39254627852724        3.68475738351768
C          132.92073221702398        2.43200799390949        1.36054134207172
C          131.63286600915242        3.03919542673277        1.64400976897102
C          130.69657526790175        2.18695192152314        1.17739138748433
C          131.41377543104917        1.06670205834582        0.60223237481268
N          132.74508078513287        1.24188277039986        0.72153008234757
H          129.67283899629908       -2.31177198275964       -1.36857584550313
H          131.55793718076782       -3.94341587126534       -2.33277164522109
H          133.45056479030308       -0.72528142439404       -0.36164995849327
H          135.26065731650257       -3.50163514980487       -4.18304580449141
H          135.29497444732206       -5.64373622709250       -5.41633848487183
H          134.71335909247870       -7.85749560771312       -5.36653039194363
H          133.27532267817733       -7.55523427946275       -2.15910639697390
H          133.24872568927168       -5.41102510395528       -0.91783358631027
H          136.89435216145722       -3.99764629790737       -2.16348734449268
H          138.75701241409547       -2.29211959245189       -1.24075031274597
H          138.70767244231246        2.30857644282436        1.32634746797167
H          136.82236430316235        3.94251336446445        2.28664612401112
H          134.93017458056673        0.72338677317276        0.31669862909951
H          135.13079600485582        5.40881037458537        0.86678094440599
H          135.10615871929940        7.55484845733432        2.10491785171801
H          133.67243443096748        7.86206663820131        5.31380720337599
H          133.09014291945277        5.64849816124089        5.36738728198230
H          133.12221017019561        3.50467211048431        4.13711138446300
H          131.48584237553121        3.99582544610441        2.11858270606483
H          129.62324408210208        2.28826919403400        1.19907321026063
C          144.22348659769219       -0.00664668259918        0.01093365904128
C          144.85074268259763       -1.10663946129978       -0.60680768098516
C          144.20157846174024       -2.18383211672566       -1.26258437364057
C          145.16684033435789       -3.02447505019003       -1.74693909756210
C          146.43407410358174       -2.48827783004342       -1.39180581273359
N          146.19183182403691       -1.32683716084473       -0.70744964399577
C          147.69428562366005       -3.01552486839428       -1.70197281379022
C          147.70883732644799       -4.30485246427281       -2.43638440497591
C          148.29254830044630       -4.39205118272912       -3.70082314306124
C          148.30698278697804       -5.59267608777478       -4.39336730665796
C          147.73965681242578       -6.72831378135661       -3.81985924355953
O          147.73497205440123       -7.92502476302287       -4.46129901655913
C          147.15592994143879       -6.65570902942779       -2.55634800320711
C          147.13951334112525       -5.45100548322710       -1.87602180593290
C          148.91933225101334       -2.42926393580705       -1.37948043279767
C          150.20609195957857       -3.04024150909450       -1.65986175785398
C          151.14383053673112       -2.18947501248702       -1.19351944964650
N          149.09710338527543       -1.23856812192098       -0.74191661813505
C          150.42860569926620       -1.06631094804134       -0.62158227089161
C          151.08480406384643        0.02471793081968       -0.01534289529468
C          150.45752989707358        1.12383789502699        0.60387771796971
C          151.10687208372957        2.20079264323533        1.25993009971743
C          150.14168289530275        3.03893178677886        1.74869176995423
C          148.87427973494468        2.50167282049259        1.39570971239931
N          149.11641673991909        1.34201354509352        0.70823335028453
C          147.61412318908967        3.02641842524594        1.71005356688783
C          147.59941700091508        4.31208376409417        2.45094314332847
C          148.16527443550464        5.46226142088156        1.89543177728073
C          148.14928333697989        6.66295006384537        2.58287042552189
C          147.56959635035923        6.72730456230157        3.84867867692790
O          147.57502511304631        7.92013518818563        4.49729440517285
C          147.00536416828842        5.58761940053257        4.41718332447549
C          147.01922200934092        4.39113335855886        3.71752499874768
C          146.38905513460668        2.44086953186724        1.38630950801701
C          145.10237770778690        3.05085375376110        1.66914244959495
C          144.16459296444498        2.20283468431756        1.19790863823299
C          144.87971769392567        1.08192409753849        0.62143441872242
N          146.21122333555891        1.25293507451782        0.74369438240860
H          143.13280338154618       -2.29038236265041       -1.35520043061758
H          145.01519571161751       -3.92972080462658       -2.31179198066706
H          146.91295703991938       -0.71495655323975       -0.34014331148091
H          148.72371592545269       -3.50605028850289       -4.15336296779780
H          148.75628247307654       -5.65256612299520       -5.37887524153114
H          148.17061870428847       -7.86520714432320       -5.32213834446024
H          146.72282219985973       -7.54755857926642       -2.12057632665270
H          146.69807150907283       -5.39894961233551       -0.88697988850133
H          150.35150749924699       -3.99819422882942       -2.13223819070959
H          152.21691394025262       -2.29366298658352       -1.21349722910002
H          152.17574097658402        2.30857694312989        1.35001729887634
H          150.29347977508681        3.94325045011135        2.31498568027506
H          148.39520529749166        0.72983257972978        0.34159373390429
H          148.60371260065469        5.41662540365276        0.90474459369098
H          148.57976328849284        7.55795656550827        2.15098812279413
H          147.14274087806604        7.85448583093425        5.35940498641055
H          146.55901968903876        5.64112632825249        5.40439349367455
H          146.59043390021424        3.50192394581981        4.16601202918565
H          144.95715718360842        4.00651524679617        2.14620786317143
H          143.09153447615356        2.30724871846719        1.21778151424989
C          157.68753079962860       -0.00117592179819        0.00540260724173
C          158.31185335027854       -1.10033908888612       -0.61679421723722
C          157.65934490312711       -2.17626544244113       -1.27134427403448
C          158.62210550839626       -3.01609245872938       -1.76197577276898
C          159.89117854496436       -2.48069992512788       -1.41211210153176
N          159.65240556097044       -1.32043545128060       -0.72449507790083
C          161.14968664546828       -3.00783869286228       -1.72933321906696
C          161.15928506430456       -4.29561385981883       -2.46661403452212
C          161.73512519179977       -4.38036371025650       -3.73479777389183
C          161.74251396640156       -5.57894938399966       -4.43099983813643
C          161.17602845419634       -6.71499096999004       -3.85746179371014
O          161.16387019617360       -7.90956236067635       -4.50278531044500
C          160.60088696741028       -6.64503119916511       -2.58986999548208
C          160.59139685376442       -5.44232771870048       -1.90589709111374
C          162.37660897141188       -2.42296891026811       -1.41134172896577
C          163.66175427196868       -3.03426424975503       -1.69835485419152
C          164.60204266703323       -2.18570024769414       -1.23302203773704
N          162.55789895035730       -1.23393612058246       -0.77172903463332
C          163.89003137811821       -1.06334099645606       -0.65553651968062
C          164.54915545510144        0.02542544056580       -0.04852516885288
C          163.92476792042970        1.12513801942214        0.57264427852028
C          164.57728154385262        2.20130015325374        1.22681440149145
C          163.61452516009399        3.04080297930000        1.71795930289571
C          162.34550112382658        2.50498339777376        1.36870900631079
N          162.58422422461101        1.34504175412279        0.68056055093991
C          161.08702975677727        3.03109834400287        1.68751157460966
C          161.07695798043076        4.31754468348279        2.42711319647678
C          161.64176243970817        5.46626657341532        1.86749601596828
C          161.63077793658556        6.66778563833891        2.55353473640403
C          161.05732542964361        6.73441900383174        3.82206290889254
O          161.06762221146121        7.92800309691724        4.46921665470049
C          160.49430969598924        5.59618970232937        4.39467231586131
C          160.50307494047689        4.39883743604818        3.69639300485353
C          159.86021844266730        2.44618071289350        1.36953971337086
C          158.57511625982906        3.05664249801607        1.65847848973484
C          157.63478369574852        2.20857414815708        1.19241741793918
C          158.34677903852005        1.08725960982070        0.61285715140146
N          159.67890583942102        1.25807938198725        0.72820609999650
H          156.59011821515864       -2.28250775169672       -1.35895677836007
H          158.46748870519090       -3.92023717787890       -2.32777729325180
H          160.37534633509949       -0.70924581176974       -0.35963344252712
H          162.16533271059185       -3.49394248163965       -4.18742705002731
H          162.18533885695575       -5.63684878290510       -5.41955246733816
H          161.59302699287772       -7.84781476841155       -5.36674116975921
H          160.16857664409633       -7.53723931691058       -2.15403154263246
H          160.15627086647061       -5.39226835195800       -0.91395620556693
H          163.80437137593555       -3.99100239269982       -2.17406189435050
H          165.67497778150980       -2.29056776805006       -1.25733417873520
H          165.64650737762693        2.30791060395431        1.31394060798535
H          163.76907679938606        3.94501163074330        2.28367139384894
H          161.86128054753462        0.73361285596051        0.31610000365913
H          162.07548048463056        5.41872888958575        0.87482328771949
H          162.06047939103260        7.56165471824626        2.11853451631792
H          160.63936887861828        7.86403224497115        5.33346196406658
H          160.05295429901483        5.65145502951017        5.38402215879063
H          160.07537410979782        3.51072558112994        4.14808363311144
H          158.43258475990166        4.01253694984920        2.13589572863813
H          156.56184919043608        2.31318720216354        1.21765179176031
C          171.15171383884675        0.00444520508157        0.00544776962894
C          171.77824237116369       -1.09429010285001       -0.61520370371978
C          171.12816924240789       -2.16599064254413       -1.27907115675523
C          172.09257025756557       -3.00679558621492       -1.76463187399779
C          173.36022063927530       -2.47650695794743       -1.40192512834536
N          173.11900670731694       -1.31779467777003       -0.71250251719402
C          174.61970990494044       -3.00713839401319       -1.70895798016616
C          174.63123616421643       -4.29245605286725       -2.45044165501555
C          175.21858462246203       -4.37522888660139       -3.71344730774214
C          175.22638670878055       -5.57112333159422       -4.41426594526415
C          174.64865510777881       -6.70643394749389       -3.85061778455933
O          174.63606109902554       -7.89830269874829       -4.50094162375124
C          174.06227200002900       -6.63855552189708       -2.58808966623794
C          174.05254529707813       -5.43850582074245       -1.89948642094107
C          175.84569436349290       -2.42751556264717       -1.37773812226482
C          177.13132894712137       -3.04275061993950       -1.65396468855287
C          178.07022256832843       -2.19768218294494       -1.17948051897777
N          176.02506099248595       -1.24018777466570       -0.73468703129509
C          177.35677143006959       -1.07367482675495       -0.60704120497631
C          178.01367504639560        0.01384965230779        0.00429367178408
C          177.38703780472306        1.11423604100898        0.62189212903607
C          178.03716398871069        2.18848651558935        1.28160636875407
C          177.07276493376597        3.03020993790034        1.76560353054619
C          175.80511892973368        2.49793494506007        1.40597704772721
N          176.04621712899450        1.33742318250539        0.71968579783257
C          174.54561630206103        3.02785775879447        1.71445839603407
C          174.53393477034686        4.31502969307378        2.45281489507874
C          175.10725008469595        5.46114603455342        1.89645566581948
C          175.09580783148505        6.66329497803154        2.58135838496618
C          174.51323571445371        6.73321571059733        3.84554070412768
O          174.52353651421370        7.92725722253236        4.49184764678010
C          173.94147291289923        5.59768190818706        4.41480386204345
C          173.95084080590439        4.39966854438435        3.71763844379829
C          173.31973726653683        2.44613447913926        1.38721666781302
C          172.03388028107813        3.05924453927896        1.66714022782160
C          171.09508201893837        2.21318972796963        1.19433343789200
C          171.80880717791990        1.09065669235952        0.61921721678173
N          173.14041173632432        1.25866213679544        0.74410442334333
H          170.05942919190073       -2.26878452178825       -1.37618000168821
H          171.94003494465866       -3.90831110753606       -2.33515907895034
H          173.84062590605942       -0.70996379448909       -0.33952324012605
H          175.65740074447334       -3.48924007405319       -4.15858421764010
H          175.67804849682949       -5.62741957428592       -5.39889198251762
H          175.07322355326616       -7.83527731332815       -5.36076914239479
H          173.62132405296705       -7.53020551562984       -2.15984524837405
H          173.60845366338299       -5.39008211277072       -0.91145307319514
H          177.27494737122177       -3.99946528118124       -2.12944391410121
H          179.14298692803840       -2.30611487016307       -1.19414590772462
H          179.10593366038691        2.29207828806836        1.37748533430457
H          177.22519761652157        3.93368479357475        2.33305725545880
H          175.32458417550319        0.72827932381477        0.34887147632550
H          175.54829985917993        5.41105157387459        0.90714796271078
H          175.53231662818393        7.55509364439161        2.14889407956962
H          174.08909563666288        7.86555272581242        5.35318612030920
H          173.49300129553174        5.65550777912262        5.40079444182246
H          173.51646439072562        3.51359906481064        4.16695211627791
H          171.89001602111821        4.01528644364712        2.14387320598411
H          170.02219839451871        2.31988353673138        1.21209204313928
C          184.61690323157575        0.02007636504589        0.04234559816984
C          185.24565145883989       -1.08608417499472       -0.56205366739257
C          184.59743684300832       -2.17409600413514       -1.20133336799532
C          185.56318754031233       -3.02032362000163       -1.67396093010318
C          186.83035977163661       -2.47779225412168       -1.32681906689765
N          186.58692241901400       -1.30582779631068       -0.66079771440354
C          188.09064978819126       -3.01127601211564       -1.62286061388409
C          188.10833968778573       -4.31164715379475       -2.33703726106312
C          188.70272145917968       -4.41732023914023       -3.59518878062568
C          188.71780795023213       -5.62641574790563       -4.27267411705495
C          188.14046316949933       -6.75232002095260       -3.69005782046853
O          188.13521440949771       -7.95669081488951       -4.31720370172692
C          187.54724022400856       -6.66172047377978       -2.43218219237385
C          187.53023487429454       -5.44856203844810       -1.76696635978095
C          189.31511452079292       -2.41900440820641       -1.30545764399488
C          190.60267406652483       -3.04071594554942       -1.55922712311621
C          191.53908380983674       -2.17763821095605       -1.11380104462783
N          189.49012146942243       -1.21118147196349       -0.70366503859225
C          190.82264262679280       -1.03480791869834       -0.58331178821309
C          191.47468240505538        0.08286189970663       -0.02848971641052
C          190.84729754268866        1.20660860971113        0.54015968542394
C          191.49589587592359        2.31511747515676        1.14375336842007
C          190.53037623192506        3.16272559982945        1.61361958680881
C          189.26255524432989        2.60033232804988        1.30148031743162
N          189.50527045807758        1.41870680556213        0.65359484657353
C          188.00282310143189        3.12080159331600        1.62352043767329
C          187.98887520342325        4.42700851615462        2.32809731697538
C          188.52675832672182        5.56745027054049        1.72671676549374
C          188.51532457436892        6.78627635643410        2.38157294070148
C          187.96857149662770        6.87902356089637        3.66019718315594
O          187.97831313249338        8.08901110565920        4.27612814433634
C          187.43190525665770        5.74952493236445        4.27389111156449
C          187.44092360198201        4.53448599703965        3.60677090748050
C          186.77877029878698        2.51264806302385        1.33990475502136
C          185.49055317682377        3.11483396344958        1.63294409063661
C          184.55402432766698        2.24802068371679        1.19467426389510
C          185.27120982634699        1.12306268126159        0.62826495997269
N          186.60272841399146        1.30931595359941        0.72648124664800
H          183.52873929243367       -2.28326947986719       -1.29179345091435
H          185.41225393893285       -3.93384119270798       -2.22552264242283
H          187.30746191324889       -0.68687651590362       -0.30440374040109
H          189.14151217079237       -3.53880742002574       -4.05495805624770
H          189.17494286129838       -5.70040659350076       -5.25360331577738
H          188.57619324173641       -7.90843678060762       -5.17604527662199
H          187.10688906319467       -7.54632973555867       -1.98896920899771
H          187.08117289151986       -5.38261708875650       -0.78220257105322
H          190.74868869777714       -4.01333490834098       -2.00049394214394
H          192.61209301091142       -2.28366076797927       -1.12431356834143
H          192.56490412030476        2.43531141627999        1.21439985769848
H          190.68179029489235        4.08964602769725        2.14220466441817
H          188.78451019663717        0.78600860106433        0.32266263550889
H          188.94014765414903        5.49910403813101        0.72660503472619
H          188.92464749095774        7.67354013136993        1.91455980421581
H          187.57112331165527        8.04221792342568        5.15164573159661
H          187.01120490118348        5.82523182564035        5.27085229650862
H          187.03418681439982        3.65337941953249        4.09042337409033
H          185.34363059933824        4.07809948906498        2.09397118392657
H          183.48037330980898        2.34162450716886        1.23072548066855
