252
 energy: -490.185528957531 gnorm: 0.000374942232 xtb: 6.5.1 (b24c23e)
Zn          53.69941885786690       -0.00299647077062       -0.09219116018275
C           50.28611268543945        0.00977702662949       -0.12633348204027
C           50.91063986637098        1.25115927699863       -0.11392385921285
C           50.23075430849281        2.51543469436469       -0.06873274608746
C           51.18496281529919        3.47929698559250       -0.05921545193810
C           52.46073540740672        2.81532535307093       -0.11073836228956
N           52.25886781369464        1.46585890438346       -0.13220355245308
C           53.70903423789846        3.44816046080156       -0.12390997372014
C           53.71862670990667        4.93365542766754       -0.11152125140207
C           53.13873434819937        5.65328107685722       -1.15629475867846
C           53.14860061652900        7.04316109708904       -1.13541216262618
O           52.59504999837179        7.75283145415986       -2.14964412337837
C           53.73230510915403        7.71879085678282       -0.06270380291952
O           53.72231885334555        9.08953051903436       -0.06682281513831
C           54.30905488633080        7.00044146476113        0.98138797125735
O           54.85925074530631        7.73234105497037        2.00126870791406
C           54.30875042348227        5.61146049540664        0.95893487402365
C           54.95117861824364        2.80309645066585       -0.14222349159232
C           56.22208879694727        3.46298973839323       -0.24848761493914
C           57.17546290059921        2.49644197551261       -0.24027585302972
N           55.15734477067461        1.45026067541069       -0.08618596323714
C           56.50102452692865        1.23770134215745       -0.12813301850535
C           57.14379274765277       -0.01661171444302       -0.06743066053498
C           56.49082933409841       -1.26554801276565       -0.01433131952109
C           57.15748539328104       -2.53261933285156        0.03600075810329
C           56.19775958077938       -3.49198689254654        0.03000609877507
C           54.92915726516936       -2.81976794684892       -0.00751771839167
N           55.14473229564784       -1.46693041972830       -0.03411952265427
C           53.68259344837199       -3.45362247863042       -0.04945624555531
C           53.67519334522044       -4.94007974199676       -0.04429198385416
C           54.16842590509947       -5.64512945322702        1.05326636361793
C           54.15947229190802       -7.03525063141023        1.05024549668019
O           54.63027189501636       -7.73103231814988        2.11460667484804
C           53.66255887633784       -7.72531074410832       -0.05636486426861
O           53.67112555706577       -9.09634433024044       -0.03367777885869
C           53.17155778127467       -7.02121960941553       -1.15245848586919
O           52.70311061710996       -7.76666648282782       -2.20343018119153
C           53.17197649021715       -5.63194260733069       -1.14918964789843
C           52.43992692754628       -2.81131811822452       -0.10070857584217
C           51.15896437259064       -3.46704992605399       -0.09154185672626
C           50.21143456497986       -2.49641162082247       -0.11369950204318
C           50.90070844136189       -1.23666437907356       -0.12939573771407
N           52.24744164437647       -1.46088880070007       -0.12129902596700
H           49.20048427724458        0.01416276282595       -0.12109094914579
H           49.15924415690797        2.63760980771237       -0.04052595162187
H           51.04227530592598        4.54698088344128       -0.01196442288330
H           52.69485631191818        5.13994444870197       -1.99947840417275
H           52.70059898400702        8.69810143173114       -1.95201923947611
H           54.16469554322497        9.39327878806203        0.74176736120659
H           55.23336039384524        7.15216508061626        2.67720376945311
H           54.74873090551091        5.05833050357103        1.78053316908870
H           56.36522059637591        4.52788780552184       -0.33820495872072
H           58.24277898404354        2.62119721772198       -0.31939753408633
H           58.22564359528425       -2.66794050246142        0.07134289720004
H           56.33663828576805       -4.56090513527049        0.04289770017102
H           54.54484646521239       -5.12032747215855        1.92179513399389
H           54.53818336331621       -8.67885989680004        1.92297847923981
H           53.29212071269991       -9.40971709007803       -0.87022163819884
H           52.38409361951099       -7.19455251956016       -2.91357290013640
H           52.79976032636353       -5.09017746960644       -2.01088170922492
H           51.00839502403549       -4.53436882424166       -0.05792012765997
H           49.13873728235309       -2.61162221506779       -0.11160171093055
Zn          86.49117152226593       -0.06587272375024       -0.07784013218765
C           89.90275733294068       -0.08946922676310       -0.16585312728638
C           89.27139190915079       -1.32163989118078       -0.28547868804728
C           89.94449150151729       -2.58582317422983       -0.39170505026676
C           88.98491854171914       -3.54062433745951       -0.47751314374518
C           87.71246596879850       -2.86955478282494       -0.43835262759879
N           87.92180477215726       -1.52726511633255       -0.30968056402937
C           86.45999532882082       -3.49058447417403       -0.51033885118664
C           86.43859693188783       -4.96751042115637       -0.66591039264744
C           87.01424193679277       -5.57154599396656       -1.78376374127206
C           86.98966620930587       -6.95480890496154       -1.91923780754433
O           87.53966662032978       -7.55198442696719       -3.00530806689320
C           86.39435159606165       -7.74044854673191       -0.93115100274991
O           86.38873624719106       -9.10215793850226       -1.08965009529201
C           85.82161634229557       -7.13781516084286        0.18573012147807
O           85.25881786040532       -7.97329378886929        1.11550495496301
C           85.83798446746023       -5.75542760602584        0.32025750299244
C           85.22209756044312       -2.84058083546540       -0.44200639939853
C           83.94598362333944       -3.47589751546974       -0.61595679916020
C           82.99915929421768       -2.51224243346234       -0.48344544356580
N           85.02517038093411       -1.50308190638400       -0.22246652339235
C           83.68252298868229       -1.27995471274167       -0.22606836073383
C           83.04824120350175       -0.03929826595264       -0.00631840272257
C           83.70950196628419        1.19050241890877        0.19236100645824
C           83.05112693831633        2.44473487303664        0.40589388369362
C           84.01633032173575        3.39353263270318        0.50371755968780
C           85.28041093987558        2.72557284663351        0.36676714236723
N           85.05630999530918        1.38691254338837        0.17899257236685
C           86.53000549378727        3.35492427470239        0.38244268545273
C           86.54526779062290        4.82873201535984        0.57321345830006
C           86.05971529300265        5.39161554877361        1.75343415642924
C           86.07195777008482        6.77099726925720        1.92517383872912
O           85.60637627246132        7.32788781013073        3.07027492001771
C           86.56659952811420        7.59369433188702        0.91203449606513
O           86.56222992446814        8.95039564380597        1.10756742151120
C           87.05085756797526        7.03170706737011       -0.26616496559150
O           87.51780899583289        7.90212773250083       -1.21673774686230
C           87.04543287938903        5.65306669692782       -0.43828139889152
C           87.76765671321404        2.71827018988683        0.23096059193409
C           89.05290999683160        3.36227169774556        0.29628114064677
C           89.99354880242082        2.39725477994956        0.13996772181509
C           89.29594130771386        1.15156590787236       -0.01393335826496
N           87.95100965224459        1.37929899734698        0.04443382846093
H           90.98831023207318       -0.09891080223727       -0.17833408189078
H           91.01554643212846       -2.71509008268387       -0.39123022196954
H           89.12232496066673       -4.60749643074238       -0.55123817249366
H           87.46513424566258       -4.97176782196374       -2.56379645955960
H           87.41984224316774       -8.51198316037812       -2.91746624609727
H           85.93578162403794       -9.48896594848267       -0.32354802332910
H           84.88259569170823       -7.46700672305916        1.84733349005490
H           85.40141658355036       -5.29359786292405        1.19816135502209
H           83.79474485261224       -4.52104148710665       -0.83319223886344
H           81.93064466878091       -2.62081911630521       -0.56808070712906
H           81.98435944986842        2.57925136382056        0.47233494070201
H           83.88336024651471        4.45351955905483        0.64759026035922
H           85.68616229849950        4.76262059197479        2.55113045988465
H           85.69373071783598        8.29263101166984        2.99686451039249
H           86.93173364047402        9.36737450095969        0.31305949827642
H           87.82868915298215        7.42361256819767       -1.99631037383218
H           87.41057178463686        5.22359757483041       -1.36391910762983
H           89.21144706335932        4.41692398037178        0.45594058343782
H           91.06683695748345        2.50675514684785        0.13636740437216
C           58.55370645774260       -0.02100685649718       -0.06765103482970
C           59.77213765299192       -0.02244423403385       -0.06207529631230
C           69.48744807255456       -0.00128893158205       -0.04014849063509
C           70.70618307666773        0.00273279790011       -0.03858292558538
C           80.42003771886343       -0.02053197871477        0.01440617359215
C           81.63845107613889       -0.02712347989213        0.00392500605168
Zn          64.63138432944943       -0.01317267719547       -0.04703066957661
C           61.18127264125156       -0.02097514771509       -0.05780689486397
C           61.83017024461842        1.21540095345747        0.14576993698155
C           61.16593776786728        2.45069220137351        0.43172478090306
C           62.12174899680117        3.41348485238476        0.49881922481359
C           63.38215807800854        2.77401985743267        0.24972477624426
N           63.17120660215473        1.43365401502273        0.06510883622523
C           64.62209186810320        3.42254618175340        0.19096255837073
C           64.61396807443161        4.90249068405276        0.28638152831917
C           65.33037776565976        5.55173421389807        1.29318368815887
C           65.32645663493732        6.93997014128751        1.39593324552017
O           66.01369242516812        7.58089190144231        2.37777091859568
C           64.60114044764855        7.70209957714788        0.47447235700866
O           64.57978268502943        9.05883523957752        0.54551752779624
C           63.88907950369485        7.04604078052841       -0.53303879509928
O           63.20217280184055        7.85057832120794       -1.40634035182316
C           63.88605281171245        5.66215930684782       -0.63236294519746
C           65.86608049953446        2.79648398657730        0.04706744308729
C           67.12429136386687        3.47036705221962       -0.10329992538633
C           68.08463412621998        2.51203231456069       -0.16925657422341
N           66.08326855090291        1.44413292245219        0.04115289153112
C           67.42513372551571        1.24569775889259       -0.06549747277659
C           68.07945407707180       -0.00448897666215       -0.04043921444129
C           67.43128423739819       -1.25719986196923       -0.01740135665216
C           68.09618965936870       -2.52165394207699        0.08179496295736
C           67.14061168588121       -3.48358998224872        0.00990088184911
C           65.87955189829249       -2.81405132311438       -0.13754884301499
N           66.09024973534227       -1.46085931945464       -0.12629353532527
C           64.63926567643824       -3.44522624264144       -0.28186207585636
C           64.63943828006985       -4.92737728073290       -0.37519827410422
C           65.32749960210451       -5.56365431069100       -1.40931702087282
C           65.31235827374253       -6.95027893645893       -1.50269365642907
O           65.96111714217851       -7.58080269598337       -2.51111040199356
C           64.61502735856071       -7.70262776522283       -0.55569037250536
O           64.62787242370247       -9.08554319268699       -0.68150431433372
C           63.95980641049234       -7.07072653103203        0.49943856085573
O           63.30743202903601       -7.80448308031320        1.44656057704576
C           63.95602056225439       -5.68287813527050        0.57851373134579
C           63.39616299218196       -2.80521078473834       -0.34274253795549
C           62.13893710796387       -3.45543130565763       -0.58097009795504
C           61.17838851388396       -2.49744484300014       -0.52477093289804
C           61.83593165626937       -1.25461977743233       -0.25384358970811
N           63.17837073003256       -1.46428740215015       -0.17246457276534
H           60.10465539962466        2.56219006145424        0.58099757402746
H           61.98527307396765        4.46023573746960        0.71807932388466
H           65.88270872189371        4.97100284260201        2.02348381411154
H           66.47671310369660        6.95154634140470        2.94609956962580
H           64.02433608388421        9.39082709607970       -0.17813324629159
H           62.73687673703036        7.32117448729938       -2.06689097538114
H           63.33813606424375        5.17868016285488       -1.43268473295056
H           67.25636302244286        4.53832010184424       -0.16933779323098
H           69.14636627152318        2.64808070264745       -0.29369604810639
H           69.15817951609591       -2.65345693097596        0.20727748792518
H           67.27602781550034       -4.55156205890630        0.06696005239745
H           65.85357569169794       -4.98777513893241       -2.15968650543999
H           65.83414768439432       -8.53815769354300       -2.40170989724570
H           63.74664051666073       -9.44970886855007       -0.52571698451254
H           63.60783973489251       -8.72403386455831        1.42204374808375
H           63.44279890925786       -5.20202183583258        1.40118939474553
H           62.00906591606500       -4.50679054718802       -0.78109831557634
H           60.11733225746971       -2.61679688944196       -0.66840730997160
Zn          75.56249784992254       -0.00711116175523       -0.00393879202858
C           72.11412281715843        0.00135095327587       -0.03257502645273
C           72.76676509510773        1.23547206847053        0.17384051774950
C           72.10583583313753        2.47457328003887        0.45196399261557
C           73.06578569098698        3.43281185671915        0.52512861040535
C           74.32508866117773        2.78669750341675        0.28760523526353
N           74.10891537728548        1.44696034522038        0.10242398354534
C           75.56866897558889        3.42771007072722        0.23792928816401
C           75.57189775271543        4.90764704847859        0.33800109697704
C           76.28068597185398        5.54573354092523        1.35722039087103
C           76.29096474504607        6.93364649126568        1.46400569754201
O           76.96989116700848        7.56422763139997        2.45800838648524
C           75.58959232052271        7.70640799133815        0.53282444542034
O           75.58437032127942        9.06298058215596        0.60636072234874
C           74.88573249492228        7.06123186999349       -0.48743475011170
O           74.22443015352779        7.87613602828270       -1.37059565470138
C           74.86660569432503        5.67755835421655       -0.58956088478357
C           76.80970450466563        2.79452905172154        0.09795378252538
C           78.07088837001849        3.46317844678139       -0.04999232429404
C           79.02675935443439        2.50072295273688       -0.11585266517351
N           77.02075591453755        1.44150201804977        0.09234029923827
C           78.36236225769917        1.23701378841763       -0.01233336067867
C           79.01093857535416       -0.01563047114402        0.01814151640375
C           78.35606622860634       -1.26464793253623        0.04766689624156
C           79.01282989191607       -2.53178087997744        0.16299691276202
C           78.05299697436705       -3.48933181042033        0.08780066514505
C           76.79726575511809       -2.81429948476910       -0.07805617008055
N           77.01472083857131       -1.46244453272697       -0.07178062419957
C           75.55535496196323       -3.44022299756859       -0.23611329022262
C           75.55059310661231       -4.92216918992668       -0.32896019557265
C           76.25926338021715       -5.56149830743343       -1.34708302363434
C           76.24300888216062       -6.94862551977756       -1.43888040671365
O           76.91549049792424       -7.58235190792295       -2.42875562170166
C           75.52059879895363       -7.69651981753191       -0.50778262656901
O           75.53245768644619       -9.08258745903403       -0.62135671254789
C           74.84338759687375       -7.06166434866600        0.53213901660989
O           74.17244443986519       -7.79656192180080        1.46277532855360
C           74.84330832033524       -5.67395556971449        0.61078286965930
C           74.31652287967957       -2.79381244836212       -0.31055540692467
C           73.05785178115184       -3.43597736133383       -0.56317474523927
C           72.10190354395290       -2.47300949227434       -0.51160752974161
C           72.76419317504107       -1.23504427262830       -0.22968827598569
N           74.10435584599020       -1.45195502079063       -0.13801713035470
H           71.04354900117316        2.59150468850218        0.59038936319838
H           72.93344429428268        4.48098914912168        0.74010530969401
H           76.81617802165515        4.95655412215464        2.09326678064302
H           77.41655062793819        6.92858794916625        3.03240848475779
H           75.04151225972048        9.40350401407128       -0.12287886426071
H           73.76020338593233        7.35426037893539       -2.03779134325528
H           74.32535885181315        5.20226262488328       -1.39925598742302
H           78.20751304279297        4.53059701119884       -0.11472090083604
H           80.08877075550259        2.63256498924228       -0.23982217484642
H           80.07243910910567       -2.66831002104202        0.30230220254938
H           78.18268164993879       -4.55745155071509        0.15455821169949
H           76.80417380588295       -4.98797006019236       -2.08573510564047
H           76.79476486859450       -8.53996914836895       -2.31305027844825
H           74.63240137975228       -9.43385514204558       -0.61781326405850
H           74.44688068730906       -8.72370762020541        1.40633767022926
H           74.31516591998222       -5.18951689541047        1.42184721175161
H           72.92408265339688       -4.48560602973495       -0.76972216746436
H           71.04152228827466       -2.58571705457297       -0.66612771772246
