312
 energy: -545.627054277879 gnorm: 0.000462500986 xtb: 6.5.1 (b24c23e)
C           34.22815696388374        0.04643996527244        0.08958203390076
C           34.83514420867090        1.27649561618622        0.30752590123397
C           34.18175965944319        2.52480688203935        0.50840265525687
C           35.14295572927101        3.47975616840672        0.68484566198134
C           36.41477803829191        2.84303637698744        0.60971300433392
N           36.17826685130323        1.51907824741756        0.37197653657726
C           37.67790790488935        3.43322789178571        0.73147947161483
C           37.70743219406719        4.89054205433858        1.00019148524125
C           38.30958815617034        5.77703572364531        0.10782402475264
C           38.30659160513900        7.13258598642421        0.39586311617357
N           37.75601339227170        7.63841573951591        1.49488523516180
C           37.18353902496893        6.80018889838545        2.35275276374529
C           37.13148186216610        5.43003407851256        2.14985345219416
C           38.89487481182567        2.75685178591083        0.62086459314179
C           40.18991886174444        3.38164834922765        0.82325480526142
C           41.11303756162388        2.41501070789046        0.64142756124803
N           39.05300290477413        1.43402822026071        0.33915126258715
C           40.38073814249586        1.20149457735252        0.33401165353830
C           41.02159407650736       -0.02480025080660        0.06164635717863
C           40.38777297565075       -1.24937931598724       -0.22381717492653
C           41.03380296723915       -2.47369403802051       -0.54050614552195
C           40.06799718437360       -3.41900865190601       -0.74824430227341
C           38.80114898101617       -2.80196324284086       -0.55311439508075
N           39.04659276217468       -1.48930051837854       -0.24706740258660
C           37.53935664525412       -3.39430196842682       -0.66900996490958
C           37.50715019108976       -4.83887678128980       -0.99610438578572
C           38.09049438488267       -5.78855581920799       -0.15783472799141
C           38.03184588529110       -7.12789799028342       -0.50963124380072
N           37.44593562637866       -7.56006367095992       -1.62155310158879
C           36.88877033224959       -6.66147094824086       -2.42712830119958
C           36.89135553942221       -5.30194239748806       -2.15871080493082
C           36.32124826616349       -2.72717374718139       -0.49996350452009
C           35.01940209660808       -3.37406033697247       -0.55896297634417
C           34.10331961166272       -2.40906510538707       -0.34268305264257
C           34.84425670713532       -1.17560255462824       -0.14473419432311
N           36.17705910476062       -1.40728076812214       -0.23598067592596
H           33.14288153866239        0.05129424745207        0.10063198520253
H           33.11221233052716        2.66197535186160        0.50810596930441
H           34.99040530224708        4.53463284704955        0.84548272673761
H           36.90421297257464        0.82001804611005        0.25552164528229
H           38.75971158195768        5.41086473884760       -0.80715459825383
H           38.76510622468107        7.84252757344975       -0.28626687475504
H           36.74610906737777        7.24282746957578        3.24289954706878
H           36.66552361171048        4.78416426630973        2.88460046917784
H           40.34842250089832        4.41534908990494        1.08432171705155
H           42.18661106932740        2.48840298926872        0.70896782913544
H           42.10206783990625       -2.60290472779166       -0.60597683695873
H           40.21674527843081       -4.45079562389255       -1.02169365653217
H           38.32375960428172       -0.79900386745734       -0.07193233641223
H           38.56694569578211       -5.48480972569520        0.76673031093241
H           38.47469890920502       -7.88589230776877        0.12985418160008
H           36.41975435394028       -7.04484452540811       -3.32859337039432
H           36.43574273828949       -4.60458859426571       -2.85154449466963
H           34.85488495785640       -4.42592716383833       -0.72853093466211
H           33.02844737348935       -2.49330135109199       -0.30810932455786
C          125.65290228563306       -0.04316555217589       -0.04490653782726
C          125.04269592536131       -1.24132778754541       -0.39271769106404
C          125.69238372935470       -2.44605849270097       -0.78271008357564
C          124.72924889194120       -3.38390795995847       -1.02716808756165
C          123.46005789391053       -2.78467300695431       -0.78495514633137
N          123.69965453255706       -1.49195996209604       -0.41522264351803
C          122.19635872524537       -3.37226777786616       -0.91390436177986
C          122.16608190013721       -4.80085181396868       -1.30767016338325
C          121.54747814588524       -5.21398908755704       -2.48718656397469
C          121.55053350939566       -6.56017700138165       -2.81645214882552
N          122.11641616043200       -7.49107562180694       -2.05487200313758
C          122.70530456226720       -7.10644732870644       -0.92721541215573
C          122.75862611991643       -5.78397660385170       -0.51579177908278
C          120.98073020813709       -2.71849514932527       -0.70071834607821
C          119.68498602833590       -3.36841140147645       -0.78494255251444
C          118.76367959614734       -2.41958735588633       -0.51926872756893
N          120.82500735068732       -1.40687087273824       -0.36932503474821
C          119.49799675228275       -1.19529202903909       -0.26391789032166
C          118.85960691951466        0.02503498861477        0.03955940218755
C          119.49611042739734        1.24438693060989        0.34087556208011
C          118.85264037606129        2.47756694721147        0.62691471430481
C          119.82040092322499        3.40946789653418        0.88097707352621
C          121.08597853698819        2.77022269808319        0.76531056196143
N          120.83786131918636        1.46563553181644        0.42869377886036
C          122.34865852585777        3.34888303059461        0.93065373655846
C          122.38099803950433        4.77691202791532        1.32381801797771
C          121.80799530098757        5.21352147306846        2.51803231250717
C          121.86638237531569        6.55938747702975        2.84372768322826
N          122.44233589406285        7.46901328802630        2.06440339300839
C          122.98873120496665        7.06195479617707        0.92311166533358
C          122.98558253298636        5.73790532343868        0.51389271335086
C          123.56600350582069        2.68279073403031        0.75295409705839
C          124.87033875103845        3.28681373935632        0.97783666090358
C          125.78452520557371        2.33558036483425        0.70101614526919
C          125.04000147558928        1.14848777626105        0.31879063392796
N          123.70722493038346        1.39183811786835        0.37045905049332
H          126.73812535349759       -0.04868113769140       -0.06000777069462
H          126.76082036894459       -2.56473561595361       -0.86699937172601
H          124.87844944306121       -4.39991130159660       -1.35478610271169
H          122.97584470466381       -0.81679193433338       -0.19283370713923
H          121.08466694166003       -4.48860053165073       -3.14557304469413
H          121.07909108330379       -6.90519016845100       -3.73201794596146
H          123.15534121829317       -7.89002886707598       -0.32463391889717
H          123.23858842669262       -5.51930507581372        0.41894188815201
H          119.52461258983863       -4.41155559792726       -1.00388111458919
H          117.69023345260825       -2.51472500131054       -0.48491346367979
H          117.78463079595839        2.62423680060118        0.63031941645471
H          119.67406833866772        4.45064318246938        1.11772017533757
H          121.55915813585754        0.77127769265355        0.26367106427983
H          121.33964266110181        4.50594774695061        3.19190527525684
H          121.43184772402064        6.92178822751662        3.77080117921005
H          123.44935955568467        7.82858757874639        0.30692944003642
H          123.43198326478613        5.45448475500155       -0.43176751814033
H          125.03819206761798        4.29719918175874        1.31424224160280
H          126.86035021342155        2.39782206757418        0.74970049843268
C           42.42651357762824       -0.03817655459800        0.06552768571713
C           43.65173410465912       -0.04903924487093        0.06864299902586
C           44.99307476917864       -0.05520467587549        0.07062602570840
C           46.22509780208109       -0.05818494825372        0.07101544147938
C           47.56015625431803       -0.05865339897308        0.06863188655502
C           48.79395411507510       -0.05735664737249        0.06258427660685
C           50.12888897664943       -0.05413129962620        0.05347932634828
C           51.36103629525702       -0.04956453814005        0.04147877445584
C           52.70203251819883       -0.04615516113752        0.02905031315639
C           53.92742046215685       -0.04124746408490        0.01346160954757
C           63.60186026358890       -0.00911728652017        0.06315846201910
C           64.82729337370702        0.00182355220033        0.08447307107327
C           66.16800000347459        0.00944168602213        0.10266427784320
C           67.40029612259615        0.01688947378025        0.11432773674520
C           68.73497001477773        0.02275743247859        0.12020806379365
C           69.96901012975286        0.02744838464602        0.11929656064613
C           71.30368563080617        0.02928278245283        0.11297000625328
C           72.53606678621058        0.02839153110118        0.10237617187129
C           73.87686232406840        0.02729246747786        0.08553941700702
C           75.10235412642029        0.02432409522985        0.06453655049683
C           84.77785906241265       -0.00779536566225        0.03518208616111
C           86.00346804184764       -0.00464563755302        0.04793271430145
C           87.34428587793472       -0.00372759651980        0.05840461087911
C           88.57665741602882       -0.00205753956801        0.06441162651690
C           89.91135366926703        0.00053435295885        0.06679293190921
C           91.14538817830672        0.00330997958596        0.06533255833865
C           92.48008084721373        0.00543941142549        0.06055046758978
C           93.71244063831662        0.00800409390241        0.05327636974300
C           95.05325814140572        0.01144807880998        0.04242402108922
C           96.27884608953306        0.01659335038909        0.02894434739735
C          105.95379157501854        0.05683284178673       -0.00559685052769
C          107.17927051629052        0.06492666610142        0.00344819877376
C          108.52028643907167        0.06859715543751        0.01068241370675
C          109.75246038617382        0.07243099652172        0.01952340619356
C          111.08737450802437        0.07515913629149        0.02745418684989
C          112.32116300751751        0.07403575667585        0.03569248121075
C          113.65618077454985        0.06852392985369        0.04076228595824
C          114.88819690506335        0.06122453595769        0.04420982525148
C          116.22951693974521        0.05238024342401        0.04586769181079
C          117.45474471234405        0.03933718662963        0.04539075003739
C           55.33116677430916       -0.04133270482992       -0.00118093905431
C           55.96073412338556       -1.27422786677670        0.25949154088082
C           55.31494910431411       -2.50445749126287        0.54629740241268
C           56.28175220919216       -3.45828411626753        0.71180948197501
C           57.54661404180144       -2.83719915738783        0.52486571555742
N           57.30195789916343       -1.51576174272198        0.26328626067049
C           58.80725023115438       -3.44041918865708        0.61327813989000
C           58.81876191732091       -4.90124216227096        0.86851202033898
C           59.39886166297739       -5.43251936442750        2.01969522764591
C           59.38043664710288       -6.80474436189828        2.21376890096781
N           58.83546645012161       -7.65185491645962        1.34661759044485
C           58.28279108463816       -7.15392952249842        0.24530073805788
C           58.24679188626427       -5.79690717069593       -0.03435102720798
C           60.03314117294651       -2.78667631065016        0.48320765186271
C           61.31925408113208       -3.45849237896152        0.54091351600515
C           62.25753267933177       -2.50161210901730        0.38694064444520
N           60.21133545009324       -1.45263642470001        0.27484424259913
C           61.54303787768960       -1.25104182617502        0.22244838173514
C           62.19852845725219       -0.01653141362396        0.03668170187846
C           61.56864234200793        1.22366924141396       -0.18622077488899
C           62.21372431710074        2.47392056867219       -0.36971887379020
C           61.24721195641800        3.41848185241345       -0.58289847023434
C           59.98322193221220        2.76937805229009       -0.54116417761687
N           60.22811672733501        1.44601937397792       -0.28883487762225
C           58.72321764085243        3.35888271744524       -0.70016305967561
C           58.71161657172458        4.80944027752539       -1.00835516993412
C           58.11657783144253        5.73003029099957       -0.14668688764662
C           58.13477570650142        7.07556253938600       -0.47867430334248
N           58.69333072567773        7.53964555961903       -1.59185733502214
C           59.26047094605060        6.66856470567468       -2.42000214002976
C           59.29783670788222        5.30536515709147       -2.17237588690688
C           57.49727068462892        2.70061129752034       -0.59288937430704
C           56.21215328294650        3.34239951580811       -0.80567267829334
C           55.27354920939648        2.39498878556175       -0.60270268956591
C           55.98701089802740        1.17499097547594       -0.28049699237770
N           57.31867427119259        1.38481718878607       -0.29114263593191
H           54.24716753368741       -2.63373479707702        0.61832646414740
H           56.13398630151093       -4.49840168727482        0.95211157713499
H           58.02072588676192       -0.81860984384024        0.10026817281324
H           59.84402003463159       -4.77882111172217        2.76017741359365
H           59.82185697491948       -7.24175980681738        3.10464576223841
H           57.84865777129235       -7.87104214263099       -0.44523725313783
H           57.79547991752368       -5.43724410839739       -0.95144661029151
H           61.46264796062844       -4.51897246023558        0.66954606638004
H           63.33054052803103       -2.60633966695499        0.37240056170708
H           63.28083526697864        2.62329940296096       -0.33773252873805
H           61.39441170606464        4.47370627500574       -0.74496917048649
H           59.50980286836959        0.73645910547845       -0.18999924450910
H           57.65990937733471        5.39846400044556        0.77814457912029
H           57.68165513756392        7.81196918087352        0.17849853701756
H           59.70551245256996        7.07759055616077       -3.32233063156114
H           59.76111329641408        4.63095091492872       -2.88275920789455
H           56.06959045007651        4.37390352332779       -1.08386139664485
H           54.20104638146924        2.48414454655340       -0.66831382396025
C           76.50572989004515        0.01529629125845        0.04217745201191
C           77.12946318555124       -1.22049746338318        0.30382640219985
C           76.47825804049819       -2.44539971678102        0.60103333704245
C           77.44030556568823       -3.40479686802317        0.76203929819213
C           78.70749610824508       -2.79271546157299        0.56157340947936
N           78.46904099014552       -1.47058879060891        0.29727797975255
C           79.96476818298243       -3.40411655141154        0.63995119317849
C           79.96910864019895       -4.86415790446111        0.90000636857097
C           80.55658728401079       -5.39527554278310        2.04751253029549
C           80.53153414386985       -6.76673098609950        2.24623934732988
N           79.97340723605863       -7.61322206568387        1.38689808027488
C           79.41357758740401       -7.11545737828043        0.28914284145685
C           79.38326360531721       -5.75912952842373        0.00541464078061
C           81.19393035225836       -2.75942599865287        0.49550416476605
C           82.47572988286625       -3.44023771680641        0.54237241199512
C           83.41923067470152       -2.49051799556207        0.37631631196070
N           81.37947563180788       -1.42734315657216        0.28149426941562
C           82.71207370580170       -1.23537138125483        0.21549859806087
C           83.37432929676932       -0.00586801618915        0.02100675357019
C           82.75070762312049        1.23819161846112       -0.19825624710515
C           83.40229906251795        2.48391626537716       -0.38895078231513
C           82.44009734875142        3.43460458185214       -0.59450688263183
C           81.17236586499425        2.79381981333415       -0.54094051020179
N           81.41077340401527        1.46921592299263       -0.28929609977923
C           79.91482870487332        3.39136793936768       -0.69020142101830
C           79.91021524629598        4.84172846575351       -0.99956064543057
C           79.32815338414093        5.76670657657726       -0.13372988070148
C           79.35259363262774        7.11190635056502       -0.46665812261348
N           79.90525686630052        7.57164872762193       -1.58456792535802
C           80.45993443977551        6.69637733637139       -2.41672139979700
C           80.49028916868583        5.33309354583703       -2.16857445571946
C           78.68557154425493        2.74140405394203       -0.57251641904782
C           77.40319238047896        3.39120633865384       -0.77749854301626
C           76.45988214841643        2.45028852804858       -0.56631643168409
C           77.16764105620054        1.22638785211310       -0.24621595078749
N           78.50039648624669        1.42731893182774       -0.26667763276197
H           75.41032823303875       -2.56749008565781        0.68273427644479
H           77.28795921992538       -4.44301348678382        1.00764979120867
H           79.19077285143560       -0.77874263208672        0.12501917068713
H           81.01269881342135       -4.74194632604816        2.78162542866321
H           80.97853850700889       -7.20360214436113        3.13439369756613
H           78.96873624179196       -7.83210267617504       -0.39502868306075
H           78.92571220626419       -5.39963365022418       -0.90864683673749
H           82.61286236508363       -4.50134404160840        0.67262850334628
H           84.49126863710327       -2.60292159804744        0.35140689679988
H           84.47060178105534        2.62634402548407       -0.36662265747615
H           82.59278619965416        4.48867088405326       -0.75899101120588
H           80.68879594438583        0.76444607402101       -0.18313427650699
H           78.87671195429192        5.43865237009701        0.79491426105186
H           78.90967298645046        7.85166621807973        0.19369458966527
H           80.90041095262536        7.10195233839752       -3.32283574082054
H           80.94336748283850        4.65523720556247       -2.88224690468271
H           77.26545443626961        4.42307311289780       -1.05677553801384
H           75.38754756089590        2.54631231615720       -0.62465039942988
C           97.68240089378060        0.01937207516482        0.01546433549661
C           98.31516410249958       -1.21055061208621        0.28280719870878
C           97.67290463593547       -2.43850043892879        0.58701983650057
C           98.64215432473563       -3.38847457256061        0.75998866401530
C           99.90503916294026       -2.76800735516038        0.55776479129522
N           99.65665817332747       -1.44993073938323        0.28201924028024
C          101.16711122139900       -3.36851371858446        0.64042294664688
C          101.18536384490722       -4.82446037924298        0.92147676859178
C          101.78528299297038       -5.33131000890841        2.07364642969783
C          101.77340828759567       -6.69928321239271        2.29571633859713
N          101.21664477705846       -7.56484046041310        1.45463760776292
C          100.64555085578235       -7.09040637015687        0.35238136579474
C          100.60173760822256       -5.73935679831460        0.04587458814376
C          102.39080347143060       -2.71600163792469        0.48299151189099
C          103.67715676770636       -3.38864691438973        0.52204816195080
C          104.61318045367909       -2.43415024539812        0.34165261988410
N          102.56596442401863       -1.38409347049976        0.26068055137131
C          103.89694932061384       -1.18390686254706        0.18304765518350
C          104.55001802613094        0.05024402527887       -0.01192720209555
C          103.91750178693289        1.29223946433752       -0.21607932219540
C          104.56016590493481        2.54442455404221       -0.39413238456588
C          103.59087323483026        3.49163521486662       -0.58176177628111
C          102.32760797361342        2.84187616578331       -0.53122940095866
N          102.57567373701934        1.51570899736959       -0.29819512748607
C          101.06523239232652        3.43174770341784       -0.67011661293915
C          101.04786987755411        4.88742625693037       -0.95269153793693
C          100.45651876315272        5.78935058502022       -0.06892208624494
C          100.46952294743926        7.14124623488139       -0.37396925922886
N          101.01947471355933        7.62868850610988       -1.48146122216843
C          101.58238580739719        6.77550995235332       -2.33084783708016
C          101.62445607817178        5.40767744051875       -2.11082571037898
C           99.84148532794764        2.76945541882135       -0.56469351500489
C           98.55448261918747        3.41023367061366       -0.76918006174861
C           97.61853418882926        2.45826499121898       -0.57571443053067
C           98.33539079069982        1.23746538940187       -0.26385520522019
N           99.66637801376041        1.45033643501192       -0.27493827295004
H           96.60572510321408       -2.56856435887883        0.66624986573640
H           98.49722497793198       -4.42567375320449        1.01421497488288
H          100.37350308140161       -0.75356109294125        0.10753289606884
H          102.24090011947278       -4.66173624834706        2.79330453750712
H          102.23017861025508       -7.11723245921533        3.18800287653314
H          100.20245003208387       -7.82230165072557       -0.31660547226673
H          100.13563376188162       -5.39953995874608       -0.87137548882608
H          103.82188596740991       -4.44828886045117        0.65599884073731
H          105.68558684788937       -2.54020735821839        0.30706999138762
H          105.62765071120671        2.69338293210544       -0.37519628189836
H          103.73613818884128        4.54876027385670       -0.73275113949667
H          101.85860336018561        0.80519908090103       -0.19703821502236
H          100.00677344548463        5.43815739906673        0.85206299411176
H          100.01947019513398        7.86334431547338        0.30095699377177
H          102.02011692600109        7.20349225989701       -3.22794493199639
H          102.08389674356776        4.74872168203369       -2.83799576710554
H           98.40929361815510        4.44409388950681       -1.03712116263667
H           96.54575827373570        2.54535135074143       -0.63963110189033
