150
 energy: -263.039199002269 gnorm: 0.000496679569 xtb: 6.5.1 (b24c23e)
Fe          13.19008654206217        0.13679832563491       -0.09393443362413
C            9.81967170643716        0.40295635654632       -0.30602351210104
C           10.46071121226628        1.13759654038135        0.67022481269307
C            9.77590344051516        1.99193929960114        1.59334438515563
C           10.72189976633750        2.52792295406680        2.39953907798856
C           11.98520939477107        2.01751598394077        1.95280129583035
N           11.80947887218083        1.14800436161516        0.91047507337390
C           13.20764629807018        2.39610226412521        2.49365938144344
C           14.42127464057892        1.93194705867922        2.01114229285746
C           15.69190896294795        2.39914257012414        2.47864410506060
C           16.63628924893606        1.76346005906213        1.74498975031387
N           14.59138322704328        1.01098019642841        1.00489953313329
C           15.94006111027263        0.89977020046602        0.84271406760332
C           16.59492497977106        0.02309065155127       -0.03134007404079
C           15.91442950360261       -0.87650431750255       -0.86138825552863
C           16.58320569479926       -1.84931138449483       -1.66844013188271
C           15.61794625459252       -2.55020079555273       -2.30963132230010
C           14.36339037842643       -1.98440176533778       -1.91249566548870
C           13.14067774588775       -2.38151589263396       -2.42926044469686
C           13.11067477689076       -3.47035470952301       -3.44429688273504
C           13.61970987154192       -3.25460306244790       -4.73192140792550
O           14.12277371559774       -2.01525219790190       -4.97061258609208
C           14.65058250654766       -1.68681953019669       -6.23978247705871
C           13.58084490058593       -4.27235412655746       -5.68437799043485
C           13.03652428266008       -5.50156602226984       -5.34418562680451
C           12.52659436710469       -5.73776831748116       -4.07649228548754
C           12.56004226108741       -4.71858395534958       -3.12513024614919
O           12.08939532962397       -4.85203766015780       -1.85770653082923
C           11.51544014830271       -6.07094162073662       -1.43094468570476
C           11.93960973590656       -1.77729698093001       -2.07731394766660
C           10.68044054289844       -2.09572626780447       -2.68479641287482
C            9.75480202913919       -1.29062537658824       -2.11245376745640
C           10.44855468603774       -0.49010355284219       -1.14865495578579
N           11.78579137909591       -0.78975553235599       -1.14342329989038
N           14.56247585395952       -0.97511145463258       -0.99943542145037
C           13.22110411165420        3.38478236534503        3.60668141017352
C           13.60193921948455        2.99407971477414        4.89724552212188
O           13.92804257221508        1.68404815846208        5.04830274216811
C           14.32337057642822        1.18497544643227        6.31010983157419
C           13.62100169758635        3.92288933079592        5.93745075590252
C           13.26644480092549        5.23869005358209        5.68114353895388
C           12.89070727066490        5.64916148438021        4.41097925483526
C           12.86615960798188        4.71994004536481        3.37164706920001
O           12.52150215628485        5.02571080465738        2.09322234855974
C           12.16665068560074        6.34782564698216        1.74231411669026
H            8.74467474127594        0.51304391439399       -0.39726796393164
H            8.70792023182858        2.14264030714068        1.61011317033119
H           10.59191743037751        3.21537962355610        3.21950585648419
H           15.83021114423420        3.12805306113663        3.26051841424466
H           17.70911305851931        1.85452473554089        1.80222192728989
H           17.65315909335409       -1.97328350595754       -1.71820768246479
H           15.73279651237091       -3.36938963414785       -3.00051168871299
H           13.88959348330654       -1.77068346939126       -7.02510014163693
H           14.98196231251400       -0.64906286352237       -6.17093289255609
H           15.50719894896551       -2.32214424603157       -6.49554347435179
H           13.96816988699230       -4.11514306314172       -6.68211896895146
H           13.00804823815682       -6.29343406156998       -6.08463315440903
H           12.10784146135829       -6.70658093751780       -3.83925314346955
H           11.21895832863063       -5.91925616877756       -0.39144070586083
H           10.62934990017236       -6.32725478330058       -2.02437369374111
H           12.23725873059020       -6.89504333614582       -1.48305025807345
H           10.53991452765529       -2.83676945265367       -3.45508317509679
H            8.69529214091602       -1.23279230725707       -2.30657494304886
H           14.52750140043324        0.12247427425179        6.16585508437452
H           13.52714459066081        1.30087454818382        7.05539963570982
H           15.23267260481823        1.68069784020116        6.67113858944438
H           13.90992966462264        3.63111576883206        6.93824238476881
H           13.28440995304132        5.96131604802071        6.48959412657178
H           12.62202326936362        6.68282970607033        4.23909370373446
H           12.99218151174807        7.04665624324376        1.92380503372648
H           11.94167677203047        6.32809625681548        0.67435189673181
H           11.27883410925982        6.68503007119761        2.29096592024288
Fe          29.16473241461748        0.12333826083136       -0.13096035466612
C           32.53170848380436        0.38957319750881       -0.37651719426812
C           31.89297735008233       -0.47912713485440       -1.23746337897956
C           32.57957929231835       -1.27466818210531       -2.21046069465868
C           31.63617793376488       -2.00831581392941       -2.84603295367065
C           30.37212699185272       -1.64053251204509       -2.27765963920664
N           30.54562299153134       -0.72433538759092       -1.27572610909780
C           29.15046946947264       -2.12619124024079       -2.72724828692580
C           27.93617189133976       -1.71183304460738       -2.20257155445869
C           26.66592630845228       -2.10825503643253       -2.73233299915572
C           25.72106255193262       -1.46975394134295       -2.00175750021216
N           27.76524120338263       -0.84357016941342       -1.15068616462175
C           26.41651626908143       -0.69765367762388       -1.01940140846132
C           25.76085004839027        0.04335795761495       -0.02818036760000
C           26.44047131771674        0.73708083230621        0.98094081247889
C           25.77112224401020        1.39625865755202        2.05907238789854
C           26.73600035002929        1.92855772340919        2.84635000084087
C           27.99098582214679        1.61559529997478        2.23091988126558
C           29.21390716343242        2.06719760016102        2.70046618151784
C           29.24382248835805        2.91242230784694        3.92587666789140
C           28.73882051309814        4.21929615623454        3.89872223917081
O           28.24071906371413        4.63787007387517        2.70592467281298
C           27.71697872280659        5.94292200721504        2.56513301342050
C           28.77667074808007        5.01309725268329        5.04455305043196
C           29.31609208118080        4.49577080011975        6.21259857686043
C           29.82260055219664        3.20590873351294        6.26269219814206
C           29.79038333651962        2.41343138181670        5.11553697691287
O           30.25867334560026        1.13915531289696        5.06408848421589
C           30.82715872752669        0.53818408162977        6.20995485656210
C           30.41468588128485        1.80836642546356        2.05045353439977
C           31.67329749601078        2.36576176444850        2.45189336185920
C           32.59695972552835        1.92607925415344        1.56523143997852
C           31.90315912410275        1.08963890355894        0.63244003023101
N           30.56757061463528        1.03293183007488        0.93403654849141
N           27.79240018630484        0.85845703945213        1.09992503457879
C           29.13825148994985       -3.09193841718373       -3.86012618792442
C           28.75022314823378       -4.42242281069609       -3.65361274942328
O           28.41640040862620       -4.75185769260468       -2.37871469294977
C           28.00911537091249       -6.06761521790271       -2.06180871250983
C           28.73230293290954       -5.32413793255623       -4.71741066016581
C           29.09488713501803       -4.89002991341871       -5.98342364502145
C           29.47745006272930       -3.57696518744923       -6.21252657962174
C           29.50081685791983       -2.67617744701643       -5.14845738480001
O           29.85083415227579       -1.36905923605775       -5.27332328587733
C           30.22089952728017       -0.84199762848468       -6.53120398415093
H           33.60543121179488        0.50329638041668       -0.47779311964539
H           33.64707975173894       -1.26483178090348       -2.36513440176598
H           31.76842442916103       -2.72902478557950       -3.63657242357045
H           26.52810172503151       -2.78045263458196       -3.56354243284032
H           24.64835292037302       -1.51278854327056       -2.10149723308661
H           24.70105081397153        1.42885495483771        2.18762311926966
H           26.62060586265621        2.49429473402358        3.75640960923187
H           28.47940971986370        6.70540556226739        2.76562863421646
H           27.38925133407569        6.02777228044529        1.52740572961210
H           26.85864599020952        6.10521626847547        3.22828434863341
H           28.39232112136747        6.02421369339868        5.03339443851523
H           29.34353714668607        5.11266204465727        7.10412195755752
H           30.23779101093928        2.82887582890342        7.18772086896988
H           31.12344691286357       -0.46846823838205        5.90944056865384
H           31.71262239784549        1.08659679455039        6.55376968664212
H           30.10186286894308        0.47055603538571        7.02986139350597
H           31.81471088775319        3.01548220092105        3.30047464903169
H           33.65543428628830        2.13138647459529        1.53277630064651
H           27.79695516373064       -6.07004177852711       -0.99111919796310
H           28.80164019978832       -6.79554630403973       -2.27366464543603
H           27.10178339867795       -6.35001909878053       -2.60944044984001
H           28.43814725409436       -6.35437834143963       -4.56817400401734
H           29.07786103094787       -5.59075579087973       -6.81094561178461
H           29.75202529678008       -3.26491188978888       -7.21124310008582
H           29.40210219576735       -0.92122515250883       -7.25652137726849
H           30.45004547422050        0.21188728514670       -6.36278885149812
H           31.10997508074355       -1.34411017005053       -6.93166748940865
C           21.79299575920850        0.05817697133591       -0.04390125355569
C           20.56270599162876        0.04872541337151       -0.05208559771628
C           19.22128233888872        0.03780828207926       -0.05063522642714
C           17.99566611481517        0.02093536800089       -0.04554770248364
C           23.13443423549255        0.05923299012725       -0.03434934328420
C           24.36009317073613        0.05499379571386       -0.02376916334313
