122
 energy: -218.758424316577 gnorm: 0.000438110000 xtb: 6.5.1 (b24c23e)
Fe          15.62482352518243        0.03058348466399       -0.03996950739963
C           12.24034966165355        0.04730716855421        0.12206275052991
C           12.89612549074423        1.26047226676959        0.16432472169726
C           12.22757965320847        2.52515318469948        0.22258516878662
C           13.18982040880889        3.46606609995256        0.37049948662322
C           14.44486717547938        2.77256674234051        0.41280896548948
N           14.25377384185172        1.42764811415531        0.24826318613933
C           15.66914965911892        3.38955718475212        0.64744019324266
C           15.68575070943611        4.84248888256145        0.93384623842031
C           15.01902194231582        5.34900979010952        2.05190216902321
C           15.03657198576960        6.70425916657695        2.32822307225147
C           15.71926467868583        7.58311632435090        1.48199369942696
C           15.73721546989038        8.97887982360863        1.76170167375507
N           15.75327413961064       10.10668849964838        1.99002936947725
C           16.38388403157817        7.08155511189659        0.35895421816207
C           16.36800959057162        5.72424382371588        0.09247763702178
C           16.87515744949762        2.70241268372346        0.62387901569765
C           18.14562678701129        3.30423334975801        0.90059139529336
C           19.08521886105864        2.35551575326809        0.67189215325958
N           17.03779964436534        1.38025683462821        0.28504243421669
C           18.38617777433672        1.17515334466184        0.27068122541588
C           19.03236320080063        0.00085972513122       -0.13242374563440
C           18.34162266735930       -1.16503763843149       -0.48250457332035
C           18.99043640223401       -2.35326842345293       -0.94014606626535
C           18.02471924028647       -3.29328045570469       -1.08048495970351
C           16.78947203973458       -2.67686983821258       -0.69741962964676
N           16.99660607593787       -1.35921978329835       -0.36695023569120
C           15.57574254273256       -3.34718675346199       -0.62476837784150
C           15.55032826726703       -4.80060966940766       -0.90802459980655
C           14.79444987775528       -5.30044142206257       -1.97106487358143
C           14.77078266147187       -6.65667082877301       -2.24199087088967
C           15.50162660910802       -7.54321399718206       -1.44543687757873
C           15.47643663750883       -8.94002697248321       -1.71925006635742
N           15.45583786582936      -10.06899452435239       -1.94076731037516
C           16.25716451967526       -7.04814224083290       -0.37840367819400
C           16.28180301959770       -5.68986945051821       -0.11743663976567
C           14.38077839069201       -2.71116451702175       -0.30550787915951
C           13.12042479554422       -3.38506340930692       -0.18016217570563
C           12.18443891009903       -2.42910929476835        0.02649242542124
C           12.87482211157682       -1.17486513367294        0.03909444445229
N           14.22319103106778       -1.36440524708031       -0.11885159934762
H           11.15680411452047        0.05477060565463        0.15649651900580
H           11.15922203501394        2.65604219177160        0.15676953685483
H           13.07356393817529        4.53544145638783        0.44011299305083
H           14.49844813106431        4.66875742308234        2.71642429623614
H           14.52292433270027        7.08932243021325        3.20131880932685
H           16.91038567616447        7.76062028099084       -0.30139574528063
H           16.87502926862854        5.34003410154923       -0.78537854356557
H           18.29023233553333        4.32033629335354        1.22938737545583
H           20.15657288389043        2.43304791073925        0.76294488532904
H           20.04858462600336       -2.44112379571063       -1.12678658824247
H           18.12875074867465       -4.31108848460657       -1.41935845172881
H           14.23576769814898       -4.61454123268767       -2.59777001770471
H           14.18720804856896       -7.03663172284752       -3.07234143290275
H           16.82205166926544       -7.73299334426024        0.24310677710739
H           16.85975079711707       -5.31047802056487        0.71763604707975
H           12.98291823986695       -4.45243935563356       -0.24063854710585
H           11.12023912909760       -2.54280601095496        0.15839707197853
Fe          31.60606766946828       -0.03388551438296       -0.03960452611237
C           34.99052621844330       -0.04198488651896        0.11863652921138
C           34.33486332165184       -1.25101593715014        0.22821035356233
C           35.00344177358290       -2.51070050732826        0.35485299173890
C           34.04140329544398       -3.44196802923969        0.55575981980117
C           32.78646471039704       -2.74704769235922        0.56182688656555
N           32.97735728673015       -1.41319052259409        0.32340796473852
C           31.56246598149992       -3.34978507532623        0.83208936968689
C           31.54465013344756       -4.78502352776354        1.19687793929583
C           32.21164733838523       -5.23170762545261        2.33994169396855
C           32.19033994424302       -6.56980370158441        2.68992718258203
C           31.50371246403996       -7.49149079741842        1.89395723562342
C           31.48045964912219       -8.86951243914130        2.25062245372807
N           31.46047597982356       -9.98318638294646        2.53949164115508
C           30.83947182128495       -7.05014030653421        0.74568262712938
C           30.85907851898832       -5.70949216535989        0.40546066912292
C           30.35662368662565       -2.66443958730406        0.77291832590523
C           29.08647598773738       -3.24953306227026        1.08478912820515
C           28.14662150139917       -2.31524365590251        0.80375415301062
N           30.19363362691354       -1.36340529332125        0.36057453972867
C           28.84523304244627       -1.15952324680167        0.33570611996251
C           28.19866048286068       -0.01005651406357       -0.13297924206764
C           28.88912350758549        1.13474951732059       -0.54723063458527
C           28.24012999472672        2.29595677795043       -1.06934586547611
C           29.20539995918169        3.22775848971360       -1.25890670914493
C           30.44063614164750        2.63373756152451       -0.84188407514011
N           30.23398242058760        1.33568100902041       -0.44127294281759
C           31.65399073467400        3.30777404564774       -0.80456786933097
C           31.67715970800538        4.74435137261794       -1.16364190121933
C           32.43186967538744        5.18971338409596       -2.25140699447184
C           32.45042695824821        6.52967679877621       -2.59425340263581
C           31.71550340534804        7.45458228254181       -1.84660536790050
C           31.73316698748576        8.83460174974655       -2.19579568278086
N           31.74628139085641        9.95030031642219       -2.47737579767068
C           30.96201496905277        7.01435012285862       -0.75436539315806
C           30.94255923538785        5.67188474389841       -0.42132132258443
C           32.84941146350182        2.68993304513180       -0.45305737710017
C           34.10993101860338        3.36947198192354       -0.36565132801593
C           35.04629610826007        2.42576744100066       -0.11011760565326
C           34.35596334691151        1.17400939290494       -0.02944640782567
N           33.00737053614897        1.35497040300722       -0.19521929422378
H           36.07412910275372       -0.04763073010297        0.15177363338993
H           36.07170164041968       -2.64512865059748        0.29477577144356
H           34.15765324404714       -4.50590995973680        0.68403219206577
H           32.73503428552877       -4.51777438983494        2.96579303049004
H           32.70372298171527       -6.90812450404689        3.58232683428755
H           30.30999454012524       -7.76263980498058        0.12407569660256
H           30.35203457786469       -5.37219178134634       -0.49145487080897
H           28.94223844382514       -4.24529465630743        1.47095868063472
H           27.07537150159315       -2.38740575974489        0.90025593974211
H           27.18215944576164        2.37286214164044       -1.26172345149411
H           29.10103155604027        4.22571490933610       -1.65231103040650
H           32.99319187556489        4.47353508784349       -2.84076562555264
H           33.03271429274397        6.86701939598374       -3.44369579220281
H           30.39421908486363        7.72918936474864       -0.17040932195813
H           30.36578740830368        5.33534007468078        0.43271839235867
H           34.24732814735385        4.43210934133905       -0.48308277349880
H           36.11071761730935        2.54626790834566        0.01373654448076
C           24.23031282874584       -0.00505065211154       -0.22272887982435
C           23.00071396696355       -0.00877988841157       -0.22213737581629
C           21.65837815714758       -0.00879691000524       -0.20656103404731
C           20.43363771869680       -0.00748727338576       -0.17981213388423
C           25.57265912769781       -0.00480719106448       -0.20782849692377
C           26.79739244009579       -0.00498752367648       -0.18059477623560
