128
 energy: -244.813234041148 gnorm: 0.000772522203 xtb: 6.5.1 (b24c23e)
Cu          15.73956447914306        0.02146772371410        0.00795051187654
C           12.33716831136688        0.00968421353238        0.17027629668006
C           12.96369726984612        1.24041000907429        0.29491137835544
C           12.28004444616590        2.49311518312364        0.44735200713735
C           13.23195384089000        3.45435996579220        0.53553153563533
C           14.50746952749667        2.79534396921299        0.44956312952396
N           14.31289102151967        1.45312004041518        0.29552894774428
C           15.74834430802307        3.43481167012691        0.49717473403917
C           15.75191219267399        4.90422645226379        0.70860552265484
C           15.22029392525767        5.45211896490071        1.87252555083125
C           15.22349847029854        6.83239028563042        2.07056573665548
C           14.64428526332139        7.35487388362916        3.33350987192849
O           14.70321360859142        8.69082124278053        3.43813574783365
O           14.16066926958062        6.66690097781685        4.19592184245712
C           15.75886199736094        7.67704173125620        1.09814348291937
C           16.28727534658912        7.13410261062355       -0.06249552973702
C           16.28645986397382        5.76003671489048       -0.25741684672728
C           16.98542165321564        2.80040365872173        0.36570356768484
C           18.25983142605368        3.45111386149680        0.48255146935932
C           19.21067429822165        2.49870867667362        0.30686854952568
N           17.18055050437835        1.46512771591849        0.13234019953784
C           18.52539876941256        1.26028173376626        0.08861045096061
C           19.16642980042617        0.02991118907899       -0.13926653603129
C           18.51408310402703       -1.20231081116322       -0.32099079604660
C           19.18481846456179       -2.43653891177830       -0.59986383598488
C           18.22729597060621       -3.39354287702959       -0.69772841245813
C           16.96423815081486       -2.75047193408339       -0.46893960196959
N           17.17151324850826       -1.41404500323840       -0.25233697747349
C           15.72445341819110       -3.39301341232698       -0.48402204856959
C           15.71563799144656       -4.86344334422040       -0.68891623969795
C           16.34547074799163       -5.71065454174663        0.22549697048168
C           16.33117793350919       -7.08636564870485        0.04143314802790
C           15.68998206015094       -7.63357226553729       -1.05722089496800
C           15.05743766613567       -6.79759925775675       -1.97875324027068
C           14.37813037841049       -7.42236372149561       -3.14116388645792
O           13.78062431626628       -6.53801954164228       -3.95363849495349
O           14.34940056113012       -8.60734645892733       -3.35526802208550
C           15.07107320763286       -5.41659895437774       -1.79335341183971
C           14.48947802970982       -2.76151487430172       -0.31744094580559
C           13.21646381011730       -3.42963617523896       -0.27598317653850
C           12.27078160057378       -2.47470015553090       -0.09676176763119
C           12.95701991403770       -1.21699540617123       -0.01484317622319
N           14.30096784888641       -1.42034668251328       -0.14833066547377
H           11.25336327690204        0.00582474765408        0.22403628805354
H           11.20793960595473        2.60829518601884        0.47297661973503
H           13.08998746347511        4.51797946870174        0.63950523225814
H           14.81144608385794        4.81014908459870        2.64518056042513
H           14.30689271013762        8.95097064751903        4.28553648183792
H           15.75895263911354        8.74918511869406        1.25283397302015
H           16.70210455392444        7.78486760356749       -0.82396532344965
H           16.69013504655142        5.34300461833219       -1.17331315084704
H           18.40518322312213        4.49914665326933        0.68906854165308
H           20.28255914138528        2.61409102724382        0.32830416300989
H           20.25158409104868       -2.54570116186843       -0.71325103473726
H           18.35991369625681       -4.44020172240196       -0.91916311511316
H           16.83545864608994       -5.28533840692588        1.09423513553708
H           16.82068865392372       -7.73141637704786        0.76217492304981
H           15.66789930774032       -8.70583631887316       -1.21570162443587
H           13.36134452156150       -7.02375712681808       -4.68237535986880
H           14.59106714675137       -4.76916607520173       -2.51764147901928
H           13.07231431346530       -4.49465451809088       -0.36127542017621
H           11.20232200660822       -2.59786256365997       -0.01544859391871
Cu          29.19951223410727       -0.02250878791060        0.00046631132968
C           32.60191559537434       -0.06381554993420        0.15904687461240
C           31.97571003891649       -1.26808956086630       -0.12441105821864
C           32.65961976547362       -2.50199261525934       -0.38828145353694
C           31.70793020134418       -3.43950025597715       -0.61907937593530
C           30.43227431650020       -2.78854430531261       -0.48633040916659
N           30.62657010843913       -1.46951029500892       -0.19398959917252
C           29.19152373459827       -3.40852704464609       -0.65114565643940
C           29.18837266766766       -4.86648863994852       -0.93072699426748
C           29.71999652954297       -5.76377188928563       -0.00888872721666
C           29.71712765589945       -7.13317316579622       -0.27155509018660
C           30.29629621338851       -8.03855651466973        0.75226854574167
O           30.23811643024992       -9.33562851557230        0.41571199051499
O           30.78039675409713       -7.66916073372450        1.79133347009991
C           29.18205526893366       -7.61480370916817       -1.46628317691199
C           28.65381601688766       -6.72328237411885       -2.38672728245823
C           28.65436299510363       -5.36071394503467       -2.12315625142695
C           27.95430844166377       -2.76612590945968       -0.56899399020089
C           26.68004623620653       -3.41957213369773       -0.67153767529412
C           25.72894506492444       -2.46234852791558       -0.52605020045253
N           27.75882964766703       -1.42798359246404       -0.35304137873389
C           26.41389345508177       -1.22049382927668       -0.32726552351509
C           25.77262619050672        0.01660491966624       -0.14050041516306
C           26.42460264644301        1.24090147526237        0.08970971871603
C           25.75365716239300        2.49855329056292        0.22808026187721
C           26.71103134533283        3.43549381466190        0.44679339266409
C           27.97423798912373        2.75322218283179        0.45351722561539
N           27.76717830155610        1.41904692083060        0.22328619256491
C           29.21393490086111        3.36585008726352        0.64845591569574
C           29.22227835614121        4.82269331108446        0.93430779074362
C           28.59147067630742        5.32484867356749        2.07474858410521
C           28.60484040140795        6.68530543365362        2.34967769717959
C           29.24607099863469        7.56138000145279        1.49005895868438
C           29.87956506558177        7.07220067453791        0.34656656764468
C           30.55858895381845        8.04256361111304       -0.54805992140177
O           31.15612551624348        7.47228712205738       -1.60488415052880
O           30.58722198373364        9.23248588618907       -0.36320092819368
C           29.86692716937343        5.70626081391935        0.07120387243756
C           30.44901816162910        2.71472391321708        0.60030407691374
C           31.72181600227958        3.33295275306401        0.85802951922713
C           32.66768519098305        2.37187963308544        0.71653529515789
C           31.98176460806583        1.15614355483795        0.38345989773985
N           30.63781929605060        1.39177157957856        0.32278658397734
H           33.68569751462257       -0.07749510301608        0.21165634817833
H           33.73174079134662       -2.61917539161592       -0.40084858992020
H           31.85020569264964       -4.47887194164970       -0.86750307665815
H           30.12828822851702       -5.40862065584560        0.93102782046419
H           30.63505990424551       -9.85759614280362        1.13184519047904
H           29.18242118802285       -8.67881260071491       -1.66963778365885
H           28.23939318301915       -7.09035939812515       -3.31889817341051
H           28.25084279462730       -4.66799836911102       -2.85325981166158
H           26.53500898287209       -4.47752401386643       -0.81931104514065
H           24.65706545562318       -2.57854374410845       -0.54345892242502
H           24.68685110175264        2.63851308024940        0.15679877378930
H           26.57823595779713        4.49725064575395        0.57790268228804
H           28.10144470056706        4.63901635827785        2.75680919891493
H           28.11457114462973        7.05959834660194        3.24115506338329
H           29.26737584900217        8.62669040266846        1.69010233232138
H           31.57531825009281        8.16948962346268       -2.13495840894716
H           30.34771439520037        5.33088586637130       -0.82440896735617
H           31.86565160050812        4.36754863998438        1.12493009228858
H           33.73606625891120        2.46186859112119        0.83422334409996
C           21.79429177997461        0.03662741706374       -0.19396521305084
C           20.57269879359495        0.03087060755578       -0.17689967109022
C           23.14466001185083        0.03268759070882       -0.19332127256275
C           24.36635198755553        0.02809305231696       -0.17727435707262
