334
 energy: -561.240557495545 gnorm: 0.000664171532 xtb: 6.5.1 (b24c23e)
C           49.54170972016446       -0.09366021524939        0.05787907767854
C           50.15557536107036       -0.96653329121772        0.94731288261962
C           49.50896615757129       -1.88722823222854        1.81807142962193
C           50.47426421488353       -2.54137941993264        2.53140094132706
C           51.74121662423525       -2.03295277176818        2.12740023274507
N           51.49862149936310       -1.09569563969091        1.16351535537026
C           53.00561276407294       -2.41072926259747        2.59693894231549
C           53.04045315746681       -3.42227227280052        3.67916872110295
C           53.70771979321998       -4.63644815198241        3.49801523908411
C           53.73685485498354       -5.58699991706402        4.50265126121366
C           53.10779817154620       -5.33558533028704        5.72480946157183
N           53.10124320008215       -6.29954585257701        6.71775668221999
C           52.43468749704567       -4.12563586779988        5.91275112443708
C           52.40216634964884       -3.18449744586921        4.89905874843187
C           54.21672473611778       -1.90370347105550        2.11899432824383
C           55.51448794530512       -2.25561544720325        2.66592420386376
C           56.43118450941218       -1.57868379273895        1.94316093610480
N           54.36661825613838       -1.01095761857508        1.10101771121052
C           55.69181109510011       -0.80596689216869        0.96442352327918
C           56.32525334153307        0.02177328728743        0.01391505711547
C           55.68516053081713        0.84492576606477       -0.93284751689667
C           56.32553382038793        1.65283716274484       -1.90897390919745
C           55.35579946801252        2.31021411433415       -2.61474995436298
C           54.09225336519814        1.93044522061162       -2.08388832781399
N           54.34356922719110        1.03520966684070       -1.07687681485099
C           52.82905977960400        2.35909964655066       -2.50719108211507
C           52.79076626250932        3.37256922647345       -3.58638048988711
C           52.12885682908983        3.10880724036257       -4.78853194294987
C           52.08983730248994        4.05233860507350       -5.79936103344779
C           52.70307457020776        5.29549670928049       -5.62272573065120
N           52.69796594383016        6.22776872562420       -6.64529139877990
C           53.37209284756383        5.56541357651214       -4.42603754671219
C           53.41474321067990        4.61231373464912       -3.42412190389301
C           51.61547984254202        1.89729149576641       -1.98334537609637
C           50.30880719743750        2.39201542481297       -2.38720872757664
C           49.39915827401868        1.69865478385963       -1.67261972246382
C           50.14914432427666        0.79216397620769       -0.82221252951344
N           51.48045899338204        0.94707043567518       -1.02846609415491
H           48.45636416166951       -0.11137054057933        0.05949777058181
H           48.44123812417702       -2.02705259606879        1.87651087249920
H           50.32676646183653       -3.31632364959362        3.26599753875436
H           52.22140301408196       -0.57697744034520        0.67588912846907
H           54.19006934310727       -4.84322066051396        2.54897895497973
H           54.24854217712560       -6.53026159594400        4.34570573592959
H           52.93461320713509       -5.95152660212670        7.64843419532198
H           53.84872816804997       -6.97282787053277        6.66275539334555
H           51.94198942248055       -3.92557940100936        6.85802421208078
H           51.89475100763550       -2.23961275831823        5.06098749904432
H           55.68013190337896       -2.91790708625535        3.50021263687661
H           57.50429409027804       -1.57754818684530        2.04911190441988
H           57.39271170997839        1.71196480916017       -2.05024896941594
H           55.50025695290795        2.98890617247068       -3.43943455798645
H           53.62357186931772        0.57597256026731       -0.52886134971045
H           51.65930393447972        2.14271461110794       -4.93779179416210
H           51.58236903661309        3.83113349907379       -6.73197586659170
H           51.95254915890929        6.12233605201035       -7.31479881767349
H           52.85348026059679        7.17995885845399       -6.35519561474047
H           53.85301117504973        6.52710050943536       -4.28408174402060
H           53.91792985422391        4.83850541810838       -2.49027556496559
H           50.13487309590239        3.17446393416747       -3.10834680378637
H           48.32336007818829        1.77884778434764       -1.68934844553425
C          130.64211264675924        0.06727782642563       -0.10158370356796
C          130.02470641541407        0.72261397625852       -1.15949336085990
C          130.66831194211161        1.36376584262704       -2.25435346763611
C          129.69986744381654        1.89141153137451       -3.06197455650315
C          128.43376848633588        1.59931498623620       -2.48016644289431
N          128.68026802800526        0.88451908311933       -1.34233948153651
C          127.16691161449683        1.94828815066617       -2.96499610422625
C          127.12715351057734        2.76222232353339       -4.20265095398952
C          126.47504375175647        2.29076755561328       -5.34486585396401
C          126.44059157930440        3.04453634430677       -6.50435149306684
C          127.04874169171519        4.30203292799114       -6.54195341879959
N          127.04995409037764        5.04211236584360       -7.71140459711198
C          127.70690564973199        4.77903132984259       -5.40545211010232
C          127.74497460817159        4.01433064911720       -4.25299496925170
C          125.95756692141678        1.58616132099486       -2.36631262358662
C          124.65623975244503        2.01520779663954       -2.84548634671377
C          123.74291986889682        1.46392055983293       -2.01920378514911
N          125.81269989400160        0.80910749490450       -1.25678318488573
C          124.48774594771756        0.70921583800729       -1.03052660931229
C          123.85871547851350       -0.01652351444459        0.00271999401751
C          124.50280479600052       -0.73059842736733        1.03170148650444
C          123.86676615413350       -1.49051082969021        2.04839523951335
C          124.83962035904963       -2.01671590012659        2.85294242300132
C          126.10081193675221       -1.58475144914824        2.35749611609683
N          125.84494056198662       -0.81824497667011        1.25033476048412
C          127.36603964658121       -1.89025639505436        2.87164797012454
C          127.41038131826434       -2.70738995021377        4.10605538833422
C          128.07842084320444       -3.93472870654571        4.12322630365153
C          128.12313721398795       -4.70274089260504        5.27285241386198
C          127.50958948641366       -4.24940773136625        6.44364524323136
N          127.52021960901148       -5.03170434259789        7.58497895450730
C          126.83484369042645       -3.02583883909047        6.43382965715824
C          126.78653154707480       -2.26867591886335        5.27687577845034
C          128.57709714767964       -1.47952791196068        2.30137133012052
C          129.88512872595402       -1.74787192544780        2.87786057215858
C          130.79160591495901       -1.20342204347313        2.04078580294308
C          130.03827504719382       -0.59118361150688        0.96141744966061
N          128.70806234176948       -0.76829497015799        1.15687237032059
H          131.72747502789198        0.07734931823909       -0.11505066941911
H          131.73638253156301        1.40281894202142       -2.39825026436029
H          129.84474467206596        2.42715726219429       -3.98605216767885
H          127.95917009321774        0.52154878427088       -0.72788576595705
H          126.00883575179026        1.31178365596534       -5.32673965148229
H          125.94076890561570        2.66273040421240       -7.38787146050287
H          127.19899757477947        6.03104761786462       -7.58952276776165
H          126.30986887928680        4.81874070554125       -8.35751424803598
H          128.18347519497499        5.75300879163329       -5.42909916436592
H          128.24041146115360        4.40124652600226       -3.36906244127800
H          124.48585631076087        2.66391344991664       -3.68942585544100
H          122.66868908467205        1.55301397715480       -2.04864204903262
H          122.80025482061113       -1.61904565675963        2.13981997610488
H          124.69878538633564       -2.65851029768523        3.70726091907179
H          126.56256397494734       -0.39115582244301        0.67392783181071
H          128.54838860745539       -4.29859558891807        3.21612760552644
H          128.63525168163142       -5.65874881744222        5.26997585892009
H          128.26862551013588       -5.70437157523988        7.63407175363025
H          127.36379661247153       -4.53245545097977        8.44595366193702
H          126.35385941265302       -2.66993314284566        7.33841287395012
H          126.27893729729428       -1.31018377546725        5.28442360628850
H          130.06184779397768       -2.26850928708147        3.80534458529679
H          131.86718355755877       -1.19173499482584        2.12476866539025
C           57.73004686271901        0.03659349062084        0.00054159351249
C           58.95510725055810        0.04836656834423       -0.01017082556741
C           60.29722154299652        0.05586162509094       -0.01869794896933
C           61.52845237752860        0.06021683852867       -0.02413175292220
C           62.86584051314689        0.06466523820333       -0.02786818872361
C           64.09715114991234        0.06828970670316       -0.02959739656575
C           65.43910214289632        0.06832908555206       -0.02882401293856
C           66.66446581374048        0.07111216755932       -0.02747573749222
C           76.32672759126078       -0.02267739019998       -0.01113397987612
C           77.55218947417630       -0.03928242995338       -0.01291985476199
C           78.89357434019259       -0.05444915123092       -0.01249361156149
C           80.12515725275803       -0.06284285415142       -0.01212020872052
C           81.46200059809209       -0.06585886606865       -0.01140176493885
C           82.69358813969816       -0.06375042838040       -0.01177889368081
C           84.03502647171943       -0.05583767346988       -0.00788668570754
C           85.26055647866615       -0.04363520529210       -0.00678534039846
C           94.92268593708515       -0.02860172312512       -0.00817448101131
C           96.14819686582300       -0.03890832507689       -0.01329024588872
C           97.48965226299727       -0.04586983247384       -0.01500644423841
C           98.72126878451905       -0.04853940812100       -0.01366631567568
C          100.05811914097715       -0.04673173188533       -0.01217846123486
C          101.28971164187871       -0.04066397984272       -0.01321054025499
C          102.63116921142846       -0.03453081852227       -0.00674457637802
C          103.85670980320963       -0.02499737996086       -0.00525855272121
C          113.51965658093246       -0.02538871489270        0.01779145362803
C          114.74496168833387       -0.03799405051414        0.01801989304195
C          116.08682104639621       -0.04992155089074        0.02412625667114
C          117.31808711842105       -0.05694165520147        0.02769085406047
C          118.65546946342680       -0.05846928649111        0.03232614728116
C          119.88671785124548       -0.05650301943807        0.03147712304740
C          121.22885514471999       -0.04772675385790        0.02740498258426
C          122.45395580309687       -0.03431994744597        0.01785800675138
C           68.06833946880634        0.07260200056126       -0.02085070581781
C           68.68929922906098       -0.24108436270194        1.20448693495656
C           68.03447082513516       -0.58464314457082        2.41471929750313
C           68.99388639205041       -0.78149629544636        3.37079205472221
C           70.26265329845363       -0.55485849674794        2.77249281390590
N           70.02806835270280       -0.24404430075272        1.45939669960702
C           71.51800143105405       -0.64020999986975        3.38951662247550
C           71.52292448347083       -0.92890999442071        4.84310622490809
C           72.16895790327196       -2.06265879688858        5.34278201044698
C           72.17557817687117       -2.33565652826922        6.69885067118786
C           71.54554614823897       -1.46570702971475        7.59276984355917
N           71.51873760354849       -1.75435230284354        8.94558623331318
C           70.89217563579633       -0.33272857683667        7.10070989536943
C           70.88129474493860       -0.07286111175815        5.74191289018939
C           72.74566472303407       -0.47552794105037        2.74465865323547
C           74.02772316036121       -0.50661254009634        3.42492536139535
C           74.97019533592794       -0.33493351501289        2.47442262487594
N           72.92983995873922       -0.26012703452859        1.41234563966800
C           74.26189401748238       -0.18516208909440        1.21934589338160
C           74.92355487082465        0.00165149791218       -0.01196882584245
C           74.30149147711907        0.22053204882470       -1.25725080062414
C           74.95453496913258        0.37892218338317       -2.50621348842557
C           73.99533411084103        0.59968599192555       -3.45717772737587
C           72.72866477171563        0.59182419407913       -2.81311495899165
N           72.96408344922347        0.34560056958997       -1.48636739696170
C           71.47455918434025        0.78519013969913       -3.40739442363851
C           71.47079586409096        1.10091076656102       -4.85529452054168
C           72.13608323081024        2.22990394178162       -5.34031163760911
C           72.13064289285306        2.53175209903389       -6.69041075335955
C           71.45890389988061        1.70172577058161       -7.59181005298944
N           71.49209143906934        1.97298154978226       -8.94802896251799
C           70.80363600828309        0.56255340360068       -7.11664675230331
C           70.80516714216100        0.27388609813725       -5.76381024682857
C           70.24757591288083        0.70233204329747       -2.74517798227700
C           68.96801432830935        0.97180746317619       -3.37552738758797
C           68.02518986156176        0.76643433089903       -2.43202434517473
C           68.73104656912845        0.38643222549993       -1.22516113730149
N           70.06248602731367        0.36936716847461       -1.43770245268251
H           66.96623519188145       -0.67304439124262        2.52987850998856
H           68.83757579087805       -1.07029680429763        4.39726718045020
H           70.75282239116628       -0.05187018690656        0.77600831241523
H           72.65256919628803       -2.74731894277280        4.65473179179332
H           72.67103440606914       -3.22475704069275        7.07327170920905
H           72.25413971285428       -2.36353742877065        9.26661093641429
H           71.35231010674262       -0.96380446056590        9.54750183506253
H           70.39819173722300        0.34446622952859        7.78892073480340
H           70.38918565542487        0.81953003987209        5.37056668537376
H           74.16704730981662       -0.62719912193289        4.48701911964055
H           76.04194226110910       -0.29803895769699        2.58749131379894
H           76.02132661133193        0.32352673250499       -2.65143668690722
H           74.15033842547592        0.74301787701140       -4.51400904994121
H           72.24047047000111        0.26124621042671       -0.78033692554030
H           72.64320298428952        2.89033009061121       -4.64525391578676
H           72.64375881922673        3.41571205446820       -7.05315535314676
H           70.74781928661871        1.55734664507995       -9.48492647501106
H           71.68019262649884        2.93344638884115       -9.18693701892859
H           70.29319929341294       -0.09352186582864       -7.81319760014595
H           70.30246873497916       -0.61722135610176       -5.40426410351148
H           68.83078366554081        1.28982599465132       -4.39633177450042
H           66.95482664356216        0.86638909562712       -2.51640385901446
C           86.66384524621083       -0.02743016157557       -0.00365955186455
C           87.29077297705115       -0.31998765532858        1.22396711489452
C           86.64183807464664       -0.65860176888159        2.43869855998122
C           87.60501089660930       -0.83465993220642        3.39504113258321
C           88.87012564283822       -0.60007371875336        2.79212130200631
N           88.62979295472134       -0.30505128634497        1.47634529127209
C           90.12734624073600       -0.66761438150626        3.40743956630648
C           90.13631381774380       -0.94063190050912        4.86404674760858
C           90.79077969492350       -2.06385326132612        5.37622824618676
C           90.79891121303534       -2.32185152800153        6.73525833859861
C           90.16186152239119       -1.44705256029284        7.61942795939669
N           90.13599057923035       -1.72135075217298        8.97520620283932
C           89.50043645105376       -0.32428801537035        7.11484512398236
C           89.48812352999282       -0.07949965503250        5.75330672213208
C           91.35228490561211       -0.49866329253127        2.75849014151436
C           92.63623242538597       -0.51613109193186        3.43552346566485
C           93.57496732925813       -0.34357718172819        2.48146322024905
N           91.53137820905100       -0.29012762291074        1.42438279811839
C           92.86233639408168       -0.20555667950926        1.22751638432898
C           93.51935667136389       -0.01582067287529       -0.00586112936899
C           92.89264955197511        0.19747415136341       -1.24984018894027
C           93.54184977204930        0.36738717523308       -2.49926312764411
C           92.57860550390438        0.57954342277284       -3.44818275991149
C           91.31313005364203        0.55321993824138       -2.80246744215460
N           91.55341556843148        0.30643708181288       -1.47677869285463
C           90.05570257554814        0.72935505323794       -3.39543614783091
C           90.04642578931011        1.05231504414078       -4.84180434867241
C           90.69050757527702        2.19659445425163       -5.31954916244116
C           90.67736060921774        2.50815346499277       -6.66737946365035
C           90.01924236482776        1.67267997331981       -7.57377144457535
N           90.04420715984463        1.95507835438583       -8.92790296389777
C           89.38648719933532        0.51779060989645       -7.10610077579088
C           89.39538770857079        0.21935682439728       -5.75538403212484
C           88.83062852744732        0.62479178255068       -2.73325599587990
C           87.54630605134251        0.87138159783955       -3.36327644521108
C           86.60762502785175        0.65112963102235       -2.41903003896234
C           87.32058827894249        0.28616251360108       -1.21165435509668
N           88.65169999766431        0.29019540264851       -1.42505134579980
H           85.57487059339883       -0.75810479190194        2.55654400924302
H           87.45368284019618       -1.11484300866835        4.42464021795989
H           89.35116070248141       -0.11108813972943        0.78988831087026
H           91.27951454008245       -2.75258334862772        4.69591062143392
H           91.30075041858012       -3.20312247467921        7.11954978374329
H           90.87555014279897       -2.32152804930533        9.30353354493976
H           89.96275753697807       -0.92574896212409        9.56848012051764
H           89.00106229328064        0.35666964505351        7.79541159376758
H           88.98932873814626        0.80492351923019        5.37194213693859
H           92.77924065028752       -0.62949416834201        4.49791619416446
H           94.64669918559495       -0.29821586529065        2.59151038557741
H           94.60905220739683        0.32590199302688       -2.64610575656524
H           92.73013239903162        0.72857944450949       -4.50473798577062
H           90.83187569710286        0.21157067372287       -0.76995832553795
H           91.18663018771512        2.86101619556614       -4.62037461320243
H           91.17344999115866        3.40408943535242       -7.02437099444303
H           89.30632653606179        1.53007709051338       -9.46629537543085
H           90.21377538257663        2.92076700291759       -9.15954116143063
H           88.88730844149255       -0.14258605090938       -7.80673090015564
H           88.90992336509584       -0.68355343418832       -5.40166206047807
H           87.40297650227018        1.18529342831000       -4.38450135528096
H           85.53568961075511        0.73277373227506       -2.50305567147999
C          105.26001838281336       -0.01028447569724        0.00178543990488
C          105.88326013467969       -0.30651829919093        1.23035202943237
C          105.23065696390987       -0.64665701199900        2.44274838249622
C          106.19123982673040       -0.82940725358047        3.40035078594402
C          107.45848786412783       -0.59729842348201        2.80077355630578
N          107.22176177989606       -0.29666237909114        1.48554730940766
C          108.71411151163609       -0.67234625626744        3.41810641675749
C          108.71913153243649       -0.95299993474885        4.87329920806140
C          109.36797917735149       -2.08162820887484        5.38069962335234
C          109.37164819700308       -2.34742221181279        6.73825150821546
C          108.73558912051358       -1.47531855461224        7.62577228329856
N          108.70480736417228       -1.75751773926030        8.97987170681841
C          108.08000472785548       -0.34700906876505        7.12599244940633
C          108.07221949184397       -0.09432985607276        5.76585447013756
C          109.94111704618898       -0.50450845169414        2.77239392268866
C          111.22346800030822       -0.52974762893800        3.45221938475073
C          112.16485741856823       -0.35431376088473        2.50132300166228
N          110.12370605198549       -0.28916110993352        1.44006623805617
C          111.45555801231914       -0.20694986640778        1.24654299406963
C          112.11582834325573       -0.01031026434170        0.01623707674899
C          111.49290612156355        0.20999266165020       -1.22820927135917
C          112.14568662068400        0.38331237329644       -2.47535268534162
C          111.18509797503641        0.59568221189238       -3.42687383655533
C          109.91764342693081        0.56668460675407       -2.78508559155642
N          110.15417867849577        0.31868650149952       -1.45900816721570
C          108.66160587906812        0.74083349139909       -3.38160099026254
C          108.65448744183388        1.05844956829283       -4.82921616048720
C          109.29708174659294        2.20155108928521       -5.31154576718606
C          109.28403742669074        2.50718149422648       -6.66079684292917
C          108.62744971616532        1.66692413150648       -7.56384727023493
N          108.65196186286877        1.94373936782515       -8.91918519853517
C          107.99644449574311        0.51297678858867       -7.09154334193465
C          108.00530135492676        0.22045643833378       -5.73957162340875
C          107.43490245824657        0.63757982825301       -2.72229546240838
C          106.15246204723539        0.88501044642881       -3.35597951785514
C          105.21109709917981        0.66758556625864       -2.41380436496981
C          105.92049804075720        0.30261487228771       -1.20430910274674
N          107.25213327328687        0.30477943035637       -1.41416416759205
H          104.16311860987702       -0.74284110690040        2.55812325831926
H          106.03681402250147       -1.11265301006192        4.42864808855428
H          107.94513283393754       -0.10318545652570        0.80106127909282
H          109.85577200561430       -2.76835647640344        4.69768636882630
H          109.86908372488561       -3.23282647979211        7.11875560417069
H          109.44113184952811       -2.36251945635368        9.30662433449514
H          108.53328141817092       -0.96465181042281        9.57730116967681
H          107.58150563871132        0.33196515357593        7.80918046609145
H          107.57792564527861        0.79425138454941        5.38831453806723
H          111.36373858039728       -0.64968521580087        4.51425691461528
H          113.23644615595968       -0.31264487709765        2.61412427635394
H          113.21338730041801        0.34329812621481       -2.61899355022450
H          111.33968856391571        0.74666618466375       -4.48271139932397
H          109.43058691776518        0.22108853579883       -0.75465365559935
H          109.79171788984470        2.86991653108828       -4.61508713752903
H          109.77884216380106        3.40235402025385       -7.02147283276501
H          107.91477228794412        1.51509844156780       -9.45565819374488
H          108.81944061506793        2.90883115888072       -9.15478748894030
H          107.49847553788624       -0.15114856317986       -7.78948938405671
H          107.52090845720717       -0.68153742214870       -5.38204773474510
H          106.01217883451990        1.19787263977853       -4.37794863696830
H          104.13949366669661        0.75075627013223       -2.50057909528656
