227
 energy: -393.653226478407 gnorm: 0.000416355360 xtb: 6.5.1 (b24c23e)
Zn          28.56556028217595        0.08339373363937       -0.03854904630438
C           25.15226542190997        0.16777663149026       -0.08550124832313
C           25.78146633123486        1.02374444324307        0.81094622862100
C           25.10857552986795        1.91827330808796        1.71194195877829
C           26.06854822969060        2.56783721315992        2.41671919854721
C           27.33980964158168        2.08119106883680        1.95158615146129
N           27.13024811523450        1.14604764527801        0.98091281017126
C           28.58837235736306        2.48473588707909        2.43482640380756
C           29.82673070258215        2.00309505388784        2.00482825932968
C           31.10315813216519        2.44657765302926        2.49250169722415
C           32.05343732969190        1.75633563303074        1.81225636111869
N           30.02598160544654        1.05549324027426        1.03620811141807
C           31.36788927768560        0.88714719413155        0.90003924772571
C           32.00219306641048        0.00678451921485        0.00020328331778
C           31.34951333560526       -0.84823310710395       -0.91080644086677
C           32.01655223544920       -1.75249189222264       -1.80229310383126
C           31.05243820931312       -2.40515126411989       -2.49986423624334
C           29.78589239509932       -1.90133022067949       -2.04598952162540
C           28.53712619281093       -2.32688735410417       -2.50528319207416
C           28.52321204577513       -3.37557644563244       -3.56581433125639
C           28.94618718028283       -3.07653315792555       -4.86746627251731
O           29.34575955424385       -1.79449999715024       -5.08241457141255
C           29.81757204695744       -1.39616637024755       -6.35332934266131
C           28.93104333976456       -4.05828423035887       -5.85781960061584
C           28.49649729783022       -5.33657858307529       -5.54156919956260
C           28.07447266236519       -5.65670217549003       -4.26000898490405
C           28.08597595979554       -4.67359878919813       -3.27109494489742
O           27.69932444210995       -4.89229655134536       -1.98551269851799
C           27.23342430739426       -6.16475333327916       -1.58550581265645
C           27.29721014467273       -1.85891385361963       -2.05797329931650
C           26.01626439822871       -2.28114427362459       -2.55843748025153
C           25.07107569954525       -1.58140254328502       -1.88240570178129
C           25.76285812570242       -0.71991684351549       -0.96378106400458
N           27.10799965028004       -0.91082285101540       -1.09570724823706
N           30.00485951033869       -0.95784701240288       -1.07743844638184
C           28.59795418213512        3.52374516984395        3.50535756067656
C           28.93669015701803        3.18236149760601        4.82090317998897
O           29.23470972666210        1.87309566706485        5.03590962366674
C           29.60080895295392        1.42559690107360        6.32510728345505
C           28.94452362255388        4.15319029903012        5.82205379777206
C           28.61702881349524        5.46211729139635        5.50196011738811
C           28.27982400961636        5.82387926864267        4.20639531017838
C           28.26838750920077        4.85182932716894        3.20648416789513
O           27.95841470102368        5.10822955131694        1.90725190265767
C           27.62148805314719        6.41789256103000        1.49796280413775
H           24.06687672667691        0.19496661405535       -0.10089700809508
H           24.03738581988489        2.02399768189107        1.78838204211346
H           25.93574451120045        3.31143780051633        3.18651705564857
H           31.24833957528691        3.19342433880792        3.25665097699250
H           33.12532792684055        1.82554047706242        1.91048522516507
H           33.08628532254735       -1.86982571843397       -1.87513102392969
H           31.18276856091757       -3.16292521174531       -3.25578245696810
H           29.04107118562882       -1.49892848704884       -7.12124294464111
H           30.09140052861639       -0.34358515108999       -6.25978281986897
H           30.70140464056957       -1.97265872933901       -6.65252672562295
H           29.25191115458671       -3.83614135190502       -6.86679039148903
H           28.48625945391225       -6.10054937763411       -6.31125755158236
H           27.74248930740221       -6.66278576429340       -4.04109350346378
H           26.98135144141116       -6.07727647882247       -0.52694958366393
H           26.33727498672945       -6.45905510536309       -2.14540666419982
H           28.00624202870532       -6.93329524164857       -1.70890036317575
H           25.86681913419991       -3.01878695595547       -3.33084368505252
H           23.99850769473403       -1.63269612852750       -1.98931404706228
H           29.79659323159402        0.35575687399647        6.23135727003396
H           28.79202664999924        1.58108587657899        7.04958686388821
H           30.50831172981229        1.92754260876366        6.68211871676487
H           29.20132145535755        3.89939673638759        6.84184770631781
H           28.62455585553468        6.21757851687889        6.28005146142973
H           28.03025877937826        6.85306485257201        3.98544901997464
H           28.44773732570303        7.11825235996479        1.67091809080151
H           27.42006454651714        6.35933800243709        0.42667111219355
H           26.72422362932832        6.78207227889061        2.01316948316478
Zn          60.67857924005469        0.01617992306526       -0.09415141483907
C           64.09101423931975        0.08910762088438       -0.16607129132257
C           63.46599377364664       -0.66273966157378       -1.15410109357714
C           64.14347869035244       -1.41153854249517       -2.17628858965619
C           63.18683530229680       -2.00274503088836       -2.93485018823131
C           61.91292271997050       -1.61705659878620       -2.38919654441538
N           62.11782855770982       -0.80946559818757       -1.30910023594194
C           60.66573700588385       -2.01979455946452       -2.87737185905724
C           59.42503941218974       -1.66501282147152       -2.34269072088329
C           58.15001200771395       -2.05725269454067       -2.87580326045701
C           57.19713194126573       -1.50143394214421       -2.08502107549558
N           59.22230070618903       -0.87397018845579       -1.24308371789992
C           57.87970202484858       -0.76229818345028       -1.06275461320614
C           57.24233515338923       -0.04378743120299       -0.03090192743979
C           57.89209917776179        0.69137551016960        0.98143454590040
C           57.22198252748141        1.39617895679504        2.03562883752757
C           58.18314044065478        1.97694254538959        2.79784519212533
C           59.45077056661235        1.63821976163714        2.21279464966412
C           60.69713137771062        2.03858105776750        2.70080183897189
C           60.70568538298300        2.91182257145674        3.90964476787919
C           60.24376640736518        4.23258625933342        3.83487186227151
O           59.81374775733758        4.64335570534976        2.61188147802908
C           59.28996033347001        5.94404572627207        2.43735156305872
C           60.25359177474259        5.04933260055069        4.96515288399190
C           60.72177235946792        4.54113411298890        6.16738708458406
C           61.18223442916260        3.23687650490590        6.26653268994266
C           61.17592271087467        2.42173000013289        5.13513308176152
O           61.59812910756592        1.12868680571295        5.13525878615171
C           62.10774380350923        0.54288379211855        6.31563304924743
C           61.93847372774503        1.69346682826175        2.15594882806595
C           63.21694148576178        2.13406663474957        2.64678666005600
C           64.16455795687646        1.58846627491999        1.84407700542865
C           63.47666989083210        0.81264412975962        0.84941261934332
N           62.13136417731051        0.89968859736005        1.06347844631078
N           59.23563185573850        0.84994956153517        1.11342021832010
C           60.66036288178915       -2.90899307587943       -4.07487510054457
C           60.28452462215294       -4.25339565430568       -3.95604798372465
O           59.94735622304558       -4.66696188906231       -2.70528802130861
C           59.53284403433135       -5.99873806080243       -2.47948422910077
C           60.28207946226492       -5.08715863886923       -5.07388178406143
C           60.65178443322279       -4.57180278813751       -6.30702739367951
C           61.02564626975887       -3.24403770624280       -6.44956002729221
C           61.03180245426617       -2.41172231884668       -5.33064599946956
O           61.37493677238726       -1.09613644883462       -5.37040782918379
C           61.76891541530974       -0.49659629991091       -6.58756128236795
H           65.17634233174448        0.11292249115790       -0.18933316497411
H           65.21521502927416       -1.47238091197563       -2.28647117361536
H           63.32399276383966       -2.64513171076742       -3.79018214986931
H           58.00717193108176       -2.67743335604167       -3.74625810744703
H           56.12539234364289       -1.57848513702769       -2.17901216181102
H           56.15244876365547        1.43346994078361        2.17009472247725
H           58.04992727428516        2.58170165095358        3.68051414720437
H           60.04225937856977        6.71312996783125        2.65120641089708
H           58.99418434164213        6.01442808269152        1.38890923928425
H           58.41064609047495        6.11118916080585        3.07128293183745
H           59.90305597018103        6.07160756988752        4.91611715387435
H           60.72809478701708        5.17577350666644        7.04679390520903
H           61.53949031612137        2.86593303920828        7.21790218867858
H           62.38817401375393       -0.47856480043740        6.05152315987708
H           62.99447529135039        1.07671921866111        6.67885827926285
H           61.35160058332261        0.51436572967829        7.10973847427958
H           63.36344112419302        2.78005840840704        3.49780042729649
H           65.23633069883809        1.69683598734602        1.90744031379404
H           59.30643551334676       -6.07005345263242       -1.41394148619394
H           60.32616181163436       -6.71457586890894       -2.72728965819644
H           58.63203380155181       -6.24241533383073       -3.05581624886250
H           59.99744333378570       -6.12761742842263       -4.99170485141042
H           60.64867648728470       -5.21969779444865       -7.17674556523992
H           61.30728643525580       -2.86866154476244       -7.42429133321442
H           60.96417637213492       -0.53121740143159       -7.33207061507894
H           61.99579052115904        0.54532358575782       -6.35383611410897
H           62.66503567682134       -0.97588277757136       -7.00035695608081
C           37.20510449969770       -0.06483573936575        0.03959124624156
C           35.97679670800481       -0.05321051644175        0.03177016463212
C           34.63177212588440       -0.03691973834160        0.02267854739676
C           33.40794955144652       -0.01957919900053        0.01232474856918
C           38.55009395320770       -0.07454566835073        0.04599579982705
C           39.77419521709030       -0.08022612138339        0.05100925976687
C           53.26831688283313       -0.08219041046890        0.02638954548044
C           52.03989427096170       -0.08767455663749        0.03990550479476
C           50.69520878940924       -0.09380929527128        0.04956303098120
C           49.47099806248508       -0.09758953296970        0.05647149089364
C           54.61302803891993       -0.07299265582136        0.01027246250312
C           55.83694320382762       -0.06190031916303       -0.00911227769956
Zn          44.62285668465951       -0.08691914032763        0.05597973751536
C           41.17971965992709       -0.08403453476386        0.05276442524417
C           41.82371799373453       -0.06468004919880        1.30655604553099
C           41.14728451019551       -0.06159414628612        2.57067325349357
C           42.10507922060435       -0.04090779352335        3.53258625752852
C           43.37581285400722       -0.02629465441336        2.86424357410998
N           43.16755363292854       -0.04675278197104        1.51111406715977
C           44.62058839652718       -0.01128337363070        3.49897811186808
C           45.86648166223824       -0.02620578432032        2.86660459465441
C           47.13633443280111        0.01700888529961        3.53527117460358
C           48.09534228908025       -0.00496869274684        2.57450761283138
N           46.07643711000136       -0.06561825881113        1.51408950316825
C           47.42047862134220       -0.05641945012155        1.31063249879257
C           48.06580903171930       -0.09536887186566        0.05783197387430
C           47.42140682314081       -0.12992058725903       -1.19573328216851
C           48.09788754929299       -0.17956916875473       -2.45881433955979
C           47.14028997999407       -0.18944531170253       -3.42110024449975
C           45.86967663376718       -0.14188227492143       -2.75419237443603
C           44.62493939067696       -0.14375701625580       -3.38938376499832
C           44.62678477188902       -0.15650601960664       -4.88090627896976
C           44.20292650398601       -1.29274453264698       -5.58236762360495
O           43.81523687920345       -2.35059783635674       -4.82086820895055
C           43.33906887252594       -3.53352956474594       -5.42960497623553
C           44.20590946784068       -1.30332974973544       -6.97687600814335
C           44.62844863173752       -0.17574380975521       -7.66453965417068
C           45.05045596451328        0.96122070546839       -6.99214602444653
C           45.05182032569273        0.96992295717978       -5.59767246277265
O           45.43858464695511        2.03817989081735       -4.85049295014671
C           45.90787125574358        3.21573368700695       -5.47487267471707
C           43.37907405579493       -0.13221374535741       -2.75660746691893
C           42.10904285700631       -0.11054208917583       -3.42613962819844
C           41.15024941648058       -0.09649548419329       -2.46517533372660
C           41.82535712362264       -0.10257280237708       -1.20030792984517
N           43.16929741029352       -0.12187764960635       -1.40351677900707
N           46.07776923977877       -0.11250328978259       -1.40116600456116
C           44.61805377022998        0.02843420374843        4.99018472569970
C           45.02185260209164       -1.08934091737309        5.73176795131227
O           45.39418953977843       -2.17898923613948        5.00854632207376
C           45.83340549030439       -3.35351708732238        5.65997169427914
C           45.01546711560928       -1.05089214929154        7.12583332415943
C           44.60938684717269        0.10671977147420        7.77231358166008
C           44.20765720102248        1.22629947286501        7.05946815277494
C           44.21005888565750        1.18611626965904        5.66556012040894
O           43.84249769133172        2.23307541083724        4.87952183104778
C           43.38950473995700        3.43909613481872        5.45993073848833
H           40.07625002043081       -0.07715005851127        2.69707050969383
H           41.96747592188241       -0.03796559939294        4.60201454717929
H           47.27267381439906        0.05974016598021        4.60400173866022
H           49.16624798931507        0.01470792349357        2.70150188568472
H           49.16876326385569       -0.20556439931093       -2.58471989030025
H           47.27834269460472       -0.22742014303791       -4.48977236452157
H           42.44896915018118       -3.34038630441485       -6.04068715177284
H           43.07405148599408       -4.20942975786618       -4.61439455977742
H           44.11011988231019       -4.00472795578071       -6.05134655216692
H           43.88482765686935       -2.17742991127584       -7.52747229740283
H           44.62889289306161       -0.18321364053463       -8.74902375308955
H           45.37230483916620        1.82758188360674       -7.55440893082456
H           46.16810166574510        3.90418340778130       -4.66866101764960
H           45.13429956129806        3.67369344484276       -6.10333112231477
H           46.79961245086526        3.02003083228088       -6.08275442431332
H           41.97217163615580       -0.10559877817368       -4.49561007593462
H           40.07939931749283       -0.07903141266450       -2.59279118124235
H           45.04587625339739       -3.78112892131519        6.29247553445131
H           46.08327806033398       -4.06405250599367        4.86982042759896
H           46.72542394770584       -3.16514371214989        6.26974728792132
H           45.32142881156030       -1.91000336293598        7.70774875230541
H           44.60592496821456        0.13708609188048        8.85640313794789
H           43.89829527411253        2.11680729958240        7.59013628263599
H           44.16848391823925        3.90781853166376        6.07361403064051
H           42.49364402593842        3.27860750161354        6.07204274318151
H           43.14134713979611        4.10188320223435        4.62878405778019
