128
 energy: -252.142043218990 gnorm: 0.000401489423 xtb: 6.5.1 (b24c23e)
Fe          16.00635029198585        0.06373855419085       -0.06352528806364
C           12.61967548987944        0.09728603406353       -0.23933350092164
C           13.26723960615732        1.30855940529747       -0.11431330356385
C           12.58233270789753        2.56356912785018       -0.03973634608731
C           13.53499752478886        3.51853672196556        0.07054670288203
C           14.80176221845204        2.84554598938985        0.04548945197374
N           14.62337014043422        1.49081237542377       -0.03992279972470
C           16.02771404755175        3.49992998393818        0.09789993954225
C           16.04314340817411        4.98212257385274        0.15182350588418
C           15.51219259727612        5.72764448930277       -0.90084849705535
C           15.54342227293693        7.11655247663842       -0.85589250645148
O           15.04098035409979        7.85092400151835       -1.87798596578887
C           16.09812450999447        7.76426840783723        0.24929847222467
O           16.11389370667716        9.13386744979394        0.26645989567839
C           16.62214365645228        7.01922713263524        1.30298580672855
O           17.14543028546290        7.72547576969012        2.35362000395674
C           16.60163911515940        5.63096243055271        1.25653913046131
C           17.24220850583153        2.82774102749305        0.08265165895687
C           18.51454897392903        3.48561110953052        0.05327407276506
C           19.45745320428819        2.51313518840724        0.03990269650047
N           17.41005962696736        1.46337277614545        0.07195937777695
C           18.75890938559199        1.26673707610578        0.05717888670228
C           19.41337818697527        0.02922180636078        0.08056582361715
C           18.73528922208982       -1.19550013172064        0.09187569425981
C           19.40916846879215       -2.45519802814383        0.13137707095903
C           18.44834789381533       -3.40927458136658        0.10662996761768
C           17.18943725087724       -2.72712040570837        0.05345482024221
N           17.38339490717562       -1.36579154208953        0.05316261149824
C           15.96816164077649       -3.37577049011131       -0.05965617082193
C           15.95514080613877       -4.85969642110922       -0.07927888057723
C           16.36791008267160       -5.57906957713331        1.04193033936943
C           16.35658946472737       -6.96900510002235        1.01999582352835
O           16.74838395224492       -7.67922458923015        2.10559497166400
C           15.94061894803056       -7.64300183640755       -0.12950371273876
O           15.94554074471675       -9.01303865201380       -0.12378069039864
C           15.53329101648491       -6.92350046676408       -1.25017066700090
O           15.14443809620678       -7.65425534702263       -2.34179490859552
C           15.53424479549794       -5.53434643111343       -1.22825496545613
C           14.75937430239626       -2.69806276038445       -0.17762373315794
C           13.48640195506323       -3.34971081490686       -0.29090916591439
C           12.55095994650380       -2.37339842972297       -0.35486079183903
C           13.25196047605294       -1.12845040819388       -0.26524749748104
N           14.60150586668027       -1.33849996800074       -0.15608738082319
H           11.53755353113616        0.10822275983165       -0.30754087071103
H           11.51020960329803        2.67760541764239       -0.06360744079011
H           13.40412924960286        4.58416915537993        0.16503640981433
H           15.09413549566354        5.23559303769964       -1.76947221120715
H           15.15765931024314        8.79144214723318       -1.66457726803582
H           16.53288698458484        9.41766063963714        1.09461424875570
H           17.48611000197766        7.12975137219219        3.03379025794424
H           17.00193610528337        5.05676066142218        2.08378064680517
H           18.65865561823325        4.55340812525453        0.02927825368790
H           20.53038605341212        2.61554932965404        0.01602791326149
H           20.47961974514828       -2.57792521793561        0.16689455564196
H           18.57171164919757       -4.47984126681454        0.10762186778804
H           16.68207674492132       -5.06585853046146        1.94154665692683
H           16.66873637374193       -8.62466520058765        1.89681012933120
H           15.63313015612249       -9.31676021072024       -0.99099941893719
H           14.88359114903567       -7.07410568388425       -3.06909830470156
H           15.22910208089748       -4.98012568779547       -2.10804316113214
H           13.33851049829461       -4.41732082235120       -0.30739556422082
H           11.48025570355906       -2.46775076519532       -0.44318031243738
Fe          29.41582149433701       -0.05560360358238       -0.06925706467800
C           32.80226663688983       -0.06716375347956       -0.25075900215951
C           32.15524100602629       -1.28506745713930       -0.26536504526240
C           32.84079505894999       -2.53993363725670       -0.33608897890589
C           31.88866787158129       -3.50178202296269       -0.33561528767036
C           30.62153930055578       -2.83114360327646       -0.28191937750820
N           30.79925717967406       -1.47541660823045       -0.21154419502747
C           29.39590887350645       -3.48799544802930       -0.30196428229063
C           29.38081979331513       -4.96673540872995       -0.41565521620467
C           29.91282343046393       -5.58960177770437       -1.54476699336824
C           29.88175586150728       -6.97481605669178       -1.65572500723221
O           30.38554622433693       -7.59008359632799       -2.75301652103079
C           29.32573345558659       -7.74235600387249       -0.63081941587586
O           29.30984308096711       -9.10521703874663       -0.76744671061920
C           28.80043465541910       -7.12012600634331        0.49913650074595
O           28.27560848724052       -7.93954522653891        1.46324785069099
C           28.82128419614398       -5.73546349722347        0.60875734897376
C           28.18111326796291       -2.81912972390267       -0.23737686019941
C           26.90887247680527       -3.47013310073443       -0.33834384695725
C           25.96558797065612       -2.50310222204540       -0.23824656206334
N           28.01273812855737       -1.46256668186155       -0.09201173557550
C           26.66376141027763       -1.26635452530427       -0.08115842963197
C           26.00905333268325       -0.03976581514425        0.08305890528119
C           26.68687771934743        1.17598290058422        0.23302911729325
C           26.01232273778015        2.42245788893477        0.41678995149461
C           26.97247204524194        3.37408109338305        0.49766040793727
C           28.23172677645709        2.70350114982518        0.36473459089828
N           28.03853425569834        1.35070434916840        0.21092666712954
C           29.45245443939613        3.36175494308743        0.32312157702227
C           29.46457088940469        4.83827597476142        0.47158086235771
C           29.04774750819481        5.42575796332400        1.66584879417275
C           29.05742770751236        6.80919699348292        1.80163729791452
O           28.66116957015115        7.39143358425679        2.95939643760110
C           29.47639395264574        7.60947896902673        0.73737388033200
O           29.46999593085291        8.97001128431393        0.89839275182388
C           29.88811786970063        7.02191371470890       -0.45626010561176
O           30.27991232878517        7.87202280249856       -1.45658266335340
C           29.88830526993365        5.63923927317967       -0.59211416918576
C           30.66143610266795        2.70232805052118        0.12789698953636
C           31.93415364193183        3.36309331803002        0.08890289897328
C           32.87001728453649        2.40062305266082       -0.08477363671296
C           32.16951819173528        1.15327910301308       -0.13665096605613
N           30.81989189647811        1.34910497519481       -0.00440454243957
H           33.88438758743379       -0.06977695880908       -0.31986579534327
H           33.91295082002254       -2.64987491044323       -0.37375597181455
H           32.02028386749750       -4.57111337768879       -0.36435852945605
H           30.33150708786804       -5.00340115978076       -2.35252163823505
H           30.26844439812579       -8.54856863511654       -2.64661519331383
H           28.88956226764236       -9.48001674389495        0.02300374159507
H           27.93347213932657       -7.42365033964927        2.20512154956036
H           28.42035383479395       -5.25763689887760        1.49487511513528
H           26.76487226894741       -4.52825557157194       -0.48378455367106
H           24.89262357343738       -2.60290409768652       -0.27048399588949
H           24.94191218174599        2.53946687947755        0.46903035788697
H           26.84811334962080        4.43751787712866        0.61988765063159
H           28.73163083008466        4.81366694634427        2.50059477344648
H           28.74014992715006        8.35452747051925        2.85939244880814
H           29.78508415027339        9.37033767336241        0.07234484078178
H           30.54455675841316        7.37829710978651       -2.24383219313806
H           30.19642180531245        5.18870620009844       -1.52827071481120
H           32.08175905816975        4.42575450082985        0.19328107294142
H           33.94069074085422        2.50479450846949       -0.16169326702945
C           22.03806644728097        0.00054751360159        0.10149401297356
C           20.81431205898617        0.01643323051700        0.09534056424225
C           23.38432791597839       -0.01280988461031        0.10324737797953
C           24.60808591095251       -0.02832408782760        0.09759879206533
