264
 energy: -530.102239068729 gnorm: 0.000836667898 xtb: 6.5.1 (b24c23e)
Cu          46.03000081112217        0.00297874974678       -0.05452963068589
C           42.62462154685048        0.03754816398193       -0.13168799316964
C           43.26034895939542        1.26903138027388       -0.08816997766153
C           42.58521047322456        2.53407200965637       -0.03598822886902
C           43.54398546803550        3.49168789920992        0.01102885126598
C           44.81496999527138        2.82012377606742       -0.02118728292512
N           44.61123680237036        1.47099295720294       -0.07283743793301
C           46.05944993913806        3.45301508674435        0.02242655570124
C           46.07135785330742        4.93824446785247        0.05770939245365
C           45.54720860528215        5.66801538165894       -1.00917322042443
C           45.55928132035294        7.05763086511221       -0.97608810321878
O           45.05932080201840        7.77671804452386       -2.01066274981306
C           46.08940307273286        7.72212153427045        0.13097650056263
O           46.08355854010914        9.09249277147375        0.13783863047273
C           46.60911507801667        6.99312814317838        1.19748000047508
O           47.10725307610100        7.71475260421782        2.25050152187341
C           46.60625674069190        5.60409617349851        1.16358127959360
C           47.29179919093778        2.79700541798006        0.03568399681560
C           48.57011890318650        3.44989075990969        0.02857030725387
C           49.51545782421995        2.47591490998297        0.03124765929446
N           47.47954687556598        1.43959044449383        0.02960743757593
C           48.82296983615580        1.22270352255874        0.03154438363749
C           49.45843511705060       -0.03188080233602        0.01966103384400
C           48.79889128583426       -1.27325015617816       -0.01430696254406
C           49.46731651340600       -2.53902177975068       -0.05529800699882
C           48.50384253838438       -3.49355247407751       -0.10093102184461
C           47.23803142552420       -2.81662627567739       -0.07940311439545
N           47.45152416595371       -1.46363461078358       -0.03299157646788
C           45.99373701902824       -3.44706150303680       -0.13232600420392
C           45.97666291762977       -4.93226066111515       -0.17004195274522
C           46.48571487108141       -5.66761638547677        0.90019572962177
C           46.46339092876487       -7.05709095377312        0.86461643839013
O           46.94809147622738       -7.78168768190450        1.90257189394479
C           45.93751968641585       -7.71587285381964       -0.24786592124393
O           45.93183067618337       -9.08639512570643       -0.25655421188599
C           45.43278147312887       -6.98132674523299       -1.31763662102352
O           44.93662423981005       -7.69730258203944       -2.37572259638306
C           45.44650276828143       -5.59246654463368       -1.28165257014268
C           44.76154444333605       -2.78882762682528       -0.15472575701457
C           43.47795412094496       -3.43648188380354       -0.16143147856209
C           42.53750278096400       -2.45930024052753       -0.16515847209716
C           43.23671930532668       -1.20668975653582       -0.15172836100925
N           44.58336164212690       -1.43527100853474       -0.14248570672785
H           41.53953705370156        0.04810120312416       -0.14041051897484
H           41.51376756974012        2.65849950266351       -0.02963170478960
H           43.40974202294218        4.55956729274218        0.07306193403449
H           45.14503274258988        5.16277990365814       -1.87779573533489
H           45.15872942364841        8.72031908698442       -1.80211814004900
H           46.48174446780962        9.38862424926784        0.97179100790941
H           47.44122044929069        7.12833388783627        2.94188359465854
H           47.00080557973327        5.04293320018078        2.00254485923456
H           48.72164817023018        4.51704435477062        0.00901838868393
H           50.58801678284165        2.58684657929417        0.02581103211460
H           50.53758202124336       -2.67014933078314       -0.05533078011414
H           48.63482148171254       -4.56206757497023       -0.15569288485614
H           46.88367794044043       -5.16691057269653        1.77333809888921
H           46.84431566943574       -8.72414171581727        1.69110334432438
H           45.53598669598367       -9.37779628696843       -1.09328835848523
H           44.61116259401708       -7.10662898045473       -3.06753532541658
H           45.06350671160479       -5.02709405444250       -2.12316557492635
H           43.32252532655423       -4.50337120201401       -0.15050410293161
H           41.46384895770227       -2.56353570686100       -0.16875176801539
Cu          94.15345943708127       -0.05348093661621       -0.03793487457035
C           97.55793217331154       -0.08147540085901       -0.14174454737411
C           96.92052484763410       -1.30931978377426       -0.23417524562831
C           97.59414076636278       -2.57248301815886       -0.33053227109969
C           96.63432745841855       -3.52857523861880       -0.38671996641519
C           95.36417630970017       -2.85690263724795       -0.33433199465672
N           95.56936940971106       -1.51065245737159       -0.23328782168054
C           94.11922737058401       -3.48986888710050       -0.35532996578371
C           94.10481385110749       -4.96947454617735       -0.48829545462124
C           94.62318399573374       -5.57529810469458       -1.63276306835076
C           94.60838998683933       -6.95979365006908       -1.75631651082445
O           95.10286543777539       -7.55855846425423       -2.86730979768439
C           94.08112353022524       -7.74392916088806       -0.72903543227304
O           94.08421126930247       -9.10641598104151       -0.87646308403420
C           93.56683934627939       -7.13884258725390        0.41475960159229
O           93.07089800888089       -7.97353807842270        1.38188036429093
C           93.57274453344894       -5.75489132276044        0.53764058650424
C           92.88816459636354       -2.83837552527926       -0.25968094629438
C           91.60882120951405       -3.48491282921159       -0.33380522102725
C           90.66510490457770       -2.51680994719305       -0.21362424526014
N           92.70276430626092       -1.48896024372517       -0.10889328731134
C           91.35960255039227       -1.27267740239480       -0.07373971342226
C           90.72597215996782       -0.02469881799150        0.06265653076645
C           91.38729486760134        1.21152299027220        0.16834374159658
C           90.72054378439265        2.47392721943708        0.27901453465954
C           91.68511285165606        3.42661632283255        0.33704803030241
C           92.94991473208414        2.75088767048394        0.27041028667650
N           92.73487068628158        1.40163569720329        0.16181412398067
C           94.19446576173210        3.38270388325048        0.28053560238024
C           94.21263708208083        4.86226753067751        0.41548292026217
C           93.71527122923401        5.46700690986950        1.56968889026493
C           93.73705026037833        6.85116298604057        1.69631528251162
O           93.26364326767107        7.44871868283035        2.81688156648395
C           94.25045385776004        7.63593104613487        0.66246285314759
O           94.25556617606655        8.99790194691909        0.81370180548202
C           94.74339103769098        7.03184753871425       -0.49119502799819
O           95.22735821391700        7.86708716780977       -1.46394782676307
C           94.73060535495060        5.64816839664485       -0.61725027719308
C           95.42515399424005        2.73050089617499        0.17250281641355
C           96.70952488805034        3.37391387618863        0.22909708594623
C           97.64843636465858        2.40288108980110        0.10718626967052
C           96.94748343776040        1.15731256525891       -0.01620536808047
N           95.60120101302202        1.38407732211449        0.02919892436701
H           98.64290282125347       -0.09180806840309       -0.15894464523054
H           98.66542674353852       -2.69755092048693       -0.34511493983403
H           96.76744472067742       -4.59666473178045       -0.44748433510895
H           95.02274960892656       -4.97618144723086       -2.44078951624906
H           95.00176968835235       -8.51945150013432       -2.76631522394770
H           93.68804735276488       -9.49374320370973       -0.07975756656952
H           92.73821312488759       -7.46759061699489        2.13472609233560
H           93.18260863015098       -5.29119116098741        1.43609299598212
H           91.45536466083740       -4.54258133343198       -0.47494731647892
H           89.59236157339899       -2.62533771827762       -0.22504719634439
H           89.65051509163588        2.60481235460417        0.30219845625284
H           91.55552934373654        4.49436931409199        0.40740872043998
H           93.32661271959876        4.86722609334346        2.38250573733828
H           93.36253528698330        8.40977912038270        2.71518630296882
H           94.63950988433881        9.38621540964417        0.01149842378834
H           95.54174650481193        7.36211765478281       -2.22524357188174
H           95.10430177980213        5.18534813134558       -1.52313300446134
H           96.86636200561689        4.43266064007631        0.35940915993628
H           98.72218906699615        2.50608514808559        0.10703415154859
C           54.66114171653118       -0.05807483663248        0.03130473375295
C           53.43273662566523       -0.05734520688258        0.03118451215798
C           52.08809919423372       -0.04814770542954        0.03552919157718
C           50.86423643186325       -0.04454803247749        0.02833342710785
C           56.00558091526547       -0.05624731040287        0.02046037399822
C           57.22962566540455       -0.05645918300531        0.01033919154686
C           70.70738343284282       -0.01574996349196       -0.06440961434933
C           69.47878106020447       -0.02214683859576       -0.06430708677418
C           68.13466484015025       -0.02659924055365       -0.06286516308310
C           66.91046296065262       -0.03147556348779       -0.05913512859233
C           72.05149831092035       -0.01083760020800       -0.06374465697216
C           73.27571916529300       -0.00581904096149       -0.06192802047881
C           86.75194729051351        0.00283271712441        0.08544406403040
C           85.52360941198386        0.00889614398957        0.08069271139810
C           84.17928165005776        0.01043935811619        0.06627094881644
C           82.95535591257297        0.00968416072492        0.04914261012445
C           88.09650260581608       -0.00515563163519        0.08442905768702
C           89.32030696297218       -0.01160556333775        0.07881483728512
Cu          62.07030327733423       -0.04302329058915       -0.03973076920852
C           58.63456545021679       -0.05240709581551       -0.00687206406723
C           59.28140111540239        1.19180834041744        0.10901608959003
C           58.60273752330693        2.43813948736954        0.29601697852794
C           59.55672295502109        3.40274055101903        0.35076885740872
C           60.82468964685896        2.75070300874663        0.18874609463017
N           60.62413054633718        1.40264345268813        0.05156865866592
C           62.06325518438498        3.39698182967537        0.19030987157460
C           62.05960178992193        4.87825722634863        0.28416495373927
C           62.67789125630731        5.51806491731010        1.35903748680151
C           62.67949374152234        6.90646931293882        1.46214789223192
O           63.26992491193808        7.53968784619719        2.50928981564737
C           62.06231299875582        7.67637044606663        0.47096460749549
O           62.05171254884228        9.03305411685146        0.53972888179325
C           61.44910319714952        7.02846745392884       -0.60461984599656
O           60.86692858493605        7.84088691169110       -1.54358590513787
C           61.43758334475203        5.64423297318533       -0.70357256474728
C           63.30447745144786        2.76117915661406        0.11101638306152
C           64.57058521434764        3.43334388094238        0.04361969213132
C           65.52839636613513        2.47329753031511       -0.02109415684440
N           63.51015502043207        1.40732518138929        0.07071316715635
C           64.85398226743925        1.21078591339267       -0.00486924051516
C           65.50569299668796       -0.03541752972155       -0.05474867767981
C           64.85960799747816       -1.28394955778800       -0.10408390578320
C           65.53971853826326       -2.54399586621864       -0.10835162041702
C           64.58581402474222       -3.50722797535442       -0.17626901103269
C           63.31603987640877       -2.83965140035526       -0.22154411814536
N           63.51584418134479       -1.48556744206178       -0.16818516618786
C           62.07707189072691       -3.47971183159356       -0.29093356177898
C           62.07865974589090       -4.96136219456340       -0.40097856205443
C           62.66613289413763       -5.57828245881373       -1.50602629271083
C           62.65229659660621       -6.96381287254115       -1.61530669119201
O           63.20253775432217       -7.57541413733751       -2.69087825933515
C           62.05795806518022       -7.73392946698127       -0.61346980573710
O           62.06993184351883       -9.11340964871370       -0.76112526331382
C           61.50539348601903       -7.12053570910356        0.50899827336502
O           60.95424023077072       -7.86947798063319        1.50773453686465
C           61.49868189373021       -5.73349936588609        0.60575968858017
C           60.83552221340179       -2.84103577736694       -0.26277765912418
C           59.56798628366269       -3.50038073310092       -0.39875787186465
C           58.60996413306447       -2.54225587744863       -0.31659541607601
C           59.28543658550549       -1.29217537644571       -0.14037878400667
N           60.63042817868205       -1.49492018833477       -0.11516441399419
H           57.53387376796537        2.55076366948079        0.38297327217268
H           59.41729369937842        4.46068896964318        0.50375293473717
H           63.14790729527635        4.93061042763409        2.13976503461357
H           63.66183835183344        6.90556947936300        3.12393477150957
H           61.57882540936662        9.37203522619681       -0.23738838602705
H           60.47014205895388        7.31798004749082       -2.25226294549169
H           60.96676101571217        5.16621905153389       -1.55457095449580
H           64.70647820542324        4.50263922434021        0.03130356388794
H           66.59729090082544        2.60015754606919       -0.08471955652568
H           66.60980903431548       -2.66631936659081       -0.05741985566153
H           64.72552819957423       -4.57603583723939       -0.18178104701248
H           63.11173415453583       -4.98873429674189       -2.29676516189779
H           63.09474076834699       -8.53537569006293       -2.58384449383137
H           61.22697666504225       -9.49475027421357       -0.48294701556609
H           61.26280085880013       -8.78467264659733        1.45133467288387
H           61.06527939336864       -5.26711638776463        1.48098427797820
H           59.43213600259958       -4.55891035739488       -0.55058847525343
H           57.53998960980145       -2.66086948483966       -0.37787785465613
Cu          78.11586454914347        0.00330384828070       -0.02264053858218
C           74.68046111549118       -0.00281610201940       -0.05525215900677
C           75.32638887673878        1.24035004900462        0.07604865109823
C           74.64550088556032        2.48651416595318        0.25543588623429
C           75.59910856753078        3.45012412515337        0.33021991070279
C           76.86915734193056        2.79764697196406        0.18803896899616
N           76.67010044945559        1.45001525617796        0.04314500480310
C           78.10778100625579        3.44314301054135        0.21139907552262
C           78.10389177251648        4.92425914226754        0.30638098796584
C           78.70714016435441        5.56294527731704        1.39046381381774
C           78.70872372747472        6.95130793855540        1.49415551567114
O           79.28427398631452        7.58351036205294        2.55009911926151
C           78.10713569551622        7.72231708137055        0.49424856445231
O           78.09757145276289        9.07887289216926        0.56316939660268
C           77.50857220795795        7.07550142493445       -0.59024807739941
O           76.94120945765970        7.88893991829305       -1.53722220200385
C           77.49694784396634        5.69132687151909       -0.68988970541363
C           79.34946419006754        2.80600935764237        0.15206341972064
C           80.61706230302181        3.47695386299368        0.10474758689100
C           81.57497958333079        2.51600289802207        0.05777028924736
N           79.55434803856318        1.45189086608198        0.11682579358762
C           80.89926111593779        1.25417906827319        0.06434358976312
C           81.55053346939761        0.00754712454604        0.02756962122778
C           80.90433131728112       -1.24017293657962       -0.03403257718242
C           81.58319618126207       -2.50078496503319       -0.02586332464402
C           80.62989473790954       -3.46308849719287       -0.11269949502614
C           79.36191407593518       -2.79433002309340       -0.18217689501037
N           79.56171488445786       -1.44046173529119       -0.12420626263190
C           78.12404309996160       -3.43348977335422       -0.27596123498010
C           78.12732516014614       -4.91507684988425       -0.38671111930173
C           78.73662523642939       -5.53111546523347       -1.48036196526923
C           78.72693787637161       -6.91667560762159       -1.59006789071673
O           79.29930040937001       -7.52721827288118       -2.65445580668451
C           78.11453194536713       -7.68755797797984       -0.59981494894536
O           78.13197388964427       -9.06726135580651       -0.74590497154551
C           77.53930271855745       -7.07496915662655        0.51167213550389
O           76.97032424602024       -7.82536845248633        1.49923260691279
C           77.52871366510330       -5.68796219213904        0.60849973784476
C           76.88302718059261       -2.79355539160881       -0.27155557229690
C           75.61773960296924       -3.45141373382735       -0.43247659287900
C           74.65939202180057       -2.49216083191008       -0.36927173757193
C           75.33264789632572       -1.24297742674587       -0.17915604110742
N           76.67664681494735       -1.44706869949963       -0.12762871578043
H           73.57536167733190        2.59961064245915        0.32403494709473
H           75.45796352103952        4.50757530459367        0.48497467485037
H           79.16495768416740        4.97468938789811        2.17780919918689
H           79.66447918037633        6.94878701987215        3.17142604855268
H           77.63524525735581        9.41883930240881       -0.21986773033118
H           76.54741534575184        7.36673765872779       -2.24809677743876
H           77.03801665712453        5.21415181412193       -1.54782251277260
H           80.75395836961692        4.54611406878829        0.09272790967638
H           82.64489711792213        2.64170953533352        0.01156675929812
H           82.65199433397980       -2.62418922697233        0.04543147013679
H           80.76878803368152       -4.53200272342728       -0.11645096621110
H           79.19680462856093       -4.94084475719227       -2.26216227704173
H           79.19185176610459       -8.48745303987605       -2.54950423985238
H           77.28118847448079       -9.44898316848716       -0.49306121946830
H           77.28206133291090       -8.73985698282357        1.44779983095874
H           77.07788821854723       -5.22225070109049        1.47524441338356
H           75.48378714137719       -4.50982374314489       -0.58681561592076
H           73.59070945146628       -2.60951331064882       -0.45173344099379
