316
 energy: -554.036810719231 gnorm: 0.000859944388 xtb: 6.5.1 (b24c23e)
C           52.81171681423744        0.12061577834182        0.02896024815240
C           53.43201681570165        1.24675304719376       -0.49673571754536
C           52.79119533490568        2.39123112551968       -1.04856300203158
C           53.76176793919182        3.27246294756571       -1.43471931000678
C           55.02709162812503        2.69969547040959       -1.12030347197470
N           54.77729268148873        1.47462013942696       -0.56957164238765
C           56.29561410732014        3.25353674995773       -1.33006157952331
C           56.34201145590927        4.61929845510222       -1.90575872090710
C           56.99395828188451        4.85565316068184       -3.11686130990929
C           57.03674729485908        6.12916973523842       -3.66234437789551
C           56.42837107052337        7.18867123149395       -2.99316852982731
O           56.44827449119975        8.45221079845763       -3.49000593936972
C           55.77636922006020        6.96740368144306       -1.78141755379411
C           55.73331157339615        5.69141854597086       -1.24816571889387
C           57.50332808875095        2.61498240630106       -1.03636669333076
C           58.80704047578480        3.23501097702403       -1.19089097801888
C           59.71715866522905        2.30904971124457       -0.82385897185344
N           57.64341168335552        1.34684185457060       -0.56086326538520
C           58.96829089846851        1.12962492621791       -0.43600322207749
C           59.59177766097713       -0.06169549422524       -0.01258355143677
C           58.94342446364887       -1.23037519335073        0.42927417729231
C           59.57412267363370       -2.43883479365001        0.82722668371030
C           58.59929373591469       -3.31535029536467        1.21627615815261
C           57.34224908297821       -2.66458605080767        1.07595676784660
N           57.60176791138317       -1.41205792617745        0.58474567395071
C           56.07682231846132       -3.18834046937332        1.36262452389211
C           56.03248915101408       -4.55258397986433        1.94073555614323
C           56.67415253963946       -4.83315773942443        3.15011401469203
C           56.63200442024277       -6.10282507570484        3.69790871196214
C           55.94788105862349       -7.11965544702129        3.03416828670812
O           55.92888851803954       -8.35473455462426        3.59797858915923
C           55.30748481199792       -6.85665399736941        1.82540434391274
C           55.34933062163098       -5.57958331092202        1.28797962415266
C           54.86858794514650       -2.51696710635146        1.14382622509687
C           53.56072355472492       -3.04683233354358        1.49668824407768
C           52.65738018146349       -2.12112102183095        1.11550366754041
C           53.41273966728994       -1.02058807915011        0.54380321719613
N           54.74088028676036       -1.28891546687053        0.58778422320897
H           51.72657152970758        0.14481456932702        0.03581693037714
H           51.72316830673543        2.50976360906408       -1.13896787653113
H           53.61923866200978        4.23179893429734       -1.90514208831588
H           55.49726477598354        0.82914262663466       -0.26260950375299
H           57.45628257915630        4.02965166025800       -3.64573226999261
H           57.53962089361510        6.30500641372981       -4.60727041300131
H           56.93180574672168        8.49452704961573       -4.32594666910102
H           55.31204649020355        7.80119996829584       -1.26945189924294
H           55.23973448423737        5.52384809031972       -0.29729142098192
H           58.98073608287839        4.24702558834218       -1.51905936946605
H           60.79177535751187        2.39451204711886       -0.79985696178040
H           60.63870045921578       -2.60800006558336        0.80937257384649
H           58.73545212839527       -4.32783949321031        1.55968749303318
H           56.88655881988321       -0.72572835834713        0.36783834889113
H           57.19344118665082       -4.03924334373910        3.67535795425901
H           57.12189004439528       -6.32011455842168        4.63903059366589
H           55.42388845473390       -8.97971547924628        3.06062360556428
H           54.78061397282525       -7.65220178777186        1.30945342037996
H           54.86246291729608       -5.38054689203582        0.33980152320527
H           53.38280230674148       -3.99271852688967        1.98262300844622
H           51.58288051395284       -2.14721664539086        1.20867738524918
C          123.62774525475108       -0.03912369425598        0.09354713143236
C          122.99910260444055       -1.08622760543025        0.75508902589861
C          123.63154205125039       -2.18001057776883        1.40991849971003
C          122.65504321469774       -2.97482806877239        1.94122921881461
C          121.39435401693918       -2.38611723361474        1.63774823665538
N          121.65269866870806       -1.25752125337890        0.91240878512876
C          120.12241095496334       -2.85456262361703        1.98738981121822
C          120.06617817157878       -4.08549751636520        2.81243717318321
C          119.40522084477250       -5.22216009408157        2.34474433261003
C          119.35125584890952       -6.37633880145445        3.11037520846538
C          119.95766388332639       -6.40318666800666        4.36416859583402
O          119.92661040541124       -7.51136629931461        5.14827643771525
C          120.61921987162803       -5.27448513685821        4.84450146173389
C          120.67313153230847       -4.12906856471733        4.07020210019869
C          118.91924355432646       -2.24788811811411        1.61721662286871
C          117.61204252673431       -2.71010390340153        2.04816330508643
C          116.70823453557202       -1.88344012701905        1.48256425887954
N          118.78758067244530       -1.14780815835364        0.82603284897718
C          117.46444286410762       -0.91124211470059        0.71735223006336
C          116.84841145257130        0.11596850196954       -0.02559818860646
C          117.50291181921108        1.12963071491160       -0.74970219860950
C          116.87795544424642        2.14043529999846       -1.52726039128024
C          117.85885859252214        2.93108375262738       -2.05866031274663
C          119.11440499253396        2.43242791675375       -1.61297178108043
N          118.84722488805602        1.33746831820932       -0.83376309849278
C          120.38492088610721        2.93429976574656       -1.91519118370583
C          120.44096277025642        4.15868772155536       -2.74909631755204
C          119.83174735156314        5.34114358946285       -2.32087168986751
C          119.88504288537167        6.48705646532221       -3.09428502439823
C          120.54759196438445        6.46351036664587       -4.32023196919223
O          120.57773159628459        7.60455525467986       -5.05569062367747
C          121.15605970937125        5.29113836096568       -4.76260364722281
C          121.10346986616455        4.15007644982955       -3.97736983757067
C          121.58937404243849        2.36317711667839       -1.48890293557780
C          122.90320748830000        2.92667893645639       -1.75752293950473
C          123.80015892683323        2.08944680672472       -1.19828027392324
C          123.03528622862214        1.02255833619332       -0.57755506866001
N          121.70785581181329        1.22602996756196       -0.76348743968246
H          124.71285791217180       -0.06082806468322        0.10892526922180
H          124.69830026057353       -2.33124198096807        1.45535497816282
H          122.79038523115300       -3.89406831603725        2.48768755295360
H          120.93742407929240       -0.64063716490399        0.54213668729585
H          118.94429974140533       -5.20728633438974        1.36339308126659
H          118.84091641937806       -7.25835920864549        2.73851769641130
H          119.43621560031087       -8.22879270649764        4.72495265859017
H          121.08210624313307       -5.30779152790275        5.82304458195607
H          121.17387286510630       -3.24639721774734        4.45230271326426
H          117.43172728619018       -3.54351673194797        2.70764919165983
H          115.63355646346841       -1.90224943975278        1.56824117294628
H          115.81274134513738        2.23716318773322       -1.66239364909882
H          117.72764985023511        3.77833882658842       -2.71177643557120
H          119.55957476582914        0.76445189152438       -0.39346718371360
H          119.32939578842299        5.36511199676444       -1.36020385301036
H          119.42038799213046        7.40662351404921       -2.76052341552988
H          121.06613471280656        7.47937242828120       -5.88042091861492
H          121.66648508190488        5.27577359441825       -5.71964841517742
H          121.56550033651051        3.23466811270982       -4.32991043183403
H          123.08920183657891        3.84620030202092       -2.28892466474485
H          124.87621691315235        2.16520223436749       -1.18200126625141
C           64.79401856811688       -0.15610500003700       -0.04318563365010
C           63.56576913779617       -0.14541404922129       -0.04118436496169
C           62.22118075924642       -0.12559829330061       -0.03125560577445
C           60.99766173371552       -0.09787824983630       -0.02426515677992
C           66.13865288052062       -0.15669804488284       -0.04440289173907
C           67.36264329344266       -0.14768145956467       -0.04242441843711
C           80.82204182264778        0.06578539148439       -0.08939386745713
C           79.59297645130198        0.07185398354320       -0.09080227889370
C           78.24980859980900        0.06783095309164       -0.09510486891021
C           77.02522819773900        0.05638832180052       -0.09142102093077
C           82.16517681425630        0.05878382334920       -0.08208403304903
C           83.38973851095606        0.05007690922816       -0.07080109046424
C           96.84843350759687        0.03715331427745       -0.07143800400311
C           95.61940520150586        0.04201730008910       -0.07407163067378
C           94.27629313148607        0.05000334993468       -0.07125937087922
C           93.05167058108111        0.05059910151473       -0.07042381281061
C           98.19155214701195        0.02973740340399       -0.06343843817727
C           99.41610213733074        0.02973795135998       -0.05374835555689
C          112.87320099487066        0.15299990957413       -0.08450466764632
C          111.64520432323017        0.14711141832548       -0.08842142003829
C          110.30010724148326        0.13766478638934       -0.08673218638387
C          109.07650223904258        0.11933764974828       -0.08213644124969
C          114.21840058187937        0.14959531420886       -0.07157912004745
C          115.44179600052254        0.14085765242487       -0.05125552538281
C           68.76804861512922       -0.13175590703274       -0.03207943654177
C           69.41254722361569       -1.23130843851103       -0.63046547453909
C           68.78082846503987       -2.33416146851232       -1.26097630198170
C           69.75938229118094       -3.16166794209405       -1.74033993099223
C           71.01806480413086       -2.59056643984511       -1.40898496411739
N           70.75730320458867       -1.42428164923031       -0.74038707964833
C           72.28590919886257       -3.08977331820326       -1.73269108210651
C           72.32087625939165       -4.38818001432684       -2.45093388683709
C           72.87241437176721       -4.47593854811166       -3.72948249332864
C           72.90472156442918       -5.68571489681943       -4.40548132045021
C           72.38859736077818       -6.82950210713823       -3.80071586865749
O           72.40354132678938       -8.03521034159872       -4.42481052311853
C           71.83725541572714       -6.75604510337980       -2.52277461086408
C           71.80199202679835       -5.54242700570953       -1.85924555528119
C           73.49998556780996       -2.46805214031338       -1.43703374481585
C           74.79775664672631       -3.04354473353627       -1.74091506490373
C           75.71988888036782       -2.16824843109466       -1.28952563100512
N           73.65621125611769       -1.27254300378570       -0.80292337438488
C           74.98437602299933       -1.06596784443143       -0.70230972321998
C           75.62150134615780        0.03514240159367       -0.09385112255360
C           74.97701750039992        1.11592449922103        0.53923599030492
C           75.60987906301762        2.19646283110772        1.20585806225843
C           74.63220020876055        3.01249533687883        1.70639584937031
C           73.37293727834174        2.45860936613331        1.34913464801193
N           73.63281672677012        1.31020621817971        0.64915532125143
C           72.10464646615986        2.96168141610821        1.66429879159537
C           72.06646976573306        4.23944548914764        2.41731110678750
C           72.62513386653988        5.40229467785939        1.88109274267791
C           72.58814174073567        6.59472384814958        2.58191426831777
C           71.99415996171599        6.63821959561962        3.84201741360993
O           71.97962904795193        7.82337307959034        4.50409036368882
C           71.43599951664251        5.48599872328215        4.39099263706075
C           71.47096456285828        4.29789864990856        3.67804345336741
C           70.88996806886398        2.35951737373924        1.32980083932342
C           69.59309677716078        2.95322531917286        1.60140447496910
C           68.67034252121920        2.09118569471544        1.12648045689274
C           69.40458749056025        0.97667426455369        0.56137982727334
N           70.73347254252008        1.16816770917653        0.68972389351852
H           67.71375495713107       -2.46522390580793       -1.34086088420224
H           69.62297075124106       -4.08018664237056       -2.28739455280794
H           71.46872444791912       -0.79117470381290       -0.39050322251545
H           73.26387141871835       -3.58403709033026       -4.20587797053515
H           73.32839076146482       -5.74632709455788       -5.40222006025977
H           72.81237724028283       -7.97479091912585       -5.29864970245737
H           71.44368422281291       -7.65413697365848       -2.06297348181050
H           71.38514480602433       -5.48876930804659       -0.85967794975480
H           74.96068277368626       -3.99597089030396       -2.21868522552795
H           76.79483622855798       -2.24285124287253       -1.32890720130117
H           76.67701408367617        2.32098743482093        1.29479946245260
H           74.77029241650646        3.91239527102129        2.28311780566527
H           72.92077502426542        0.68974250378183        0.27855837310752
H           73.07431934961419        5.37314652638012        0.89460754926936
H           73.01317130715830        7.49934447520127        2.16492068854494
H           71.54075766035565        7.74304845253367        5.36160923911304
H           70.97795770058687        5.52322257101911        5.37357339630968
H           71.04701926156901        3.39903891320063        4.11167998114655
H           69.43203136404495        3.90891146434132        2.07326084667546
H           67.59592913362039        2.18105999477651        1.13811613958125
C           84.79330787389266        0.03622341273861       -0.05044981130792
C           85.41809770692322       -1.06990951181952       -0.65941915235044
C           84.76629890798182       -2.15169171344610       -1.30528711323968
C           85.72933326686508       -3.00217539552987       -1.77631386088998
C           86.99770579939032       -2.46605851131320       -1.42502570021243
N           86.75849994913523       -1.29600245929162       -0.75460593015243
C           88.25623331700284       -2.99883801650109       -1.73154078389514
C           88.26622818489481       -4.30132950292562       -2.44281499206794
C           88.83481189147476       -4.41356755301103       -3.71191979816008
C           88.84427389854274       -5.62883256961668       -4.37879897828997
C           88.28764577013969       -6.75360848378952       -3.77429870374512
O           88.27912917153756       -7.96390781941249       -4.38948289527953
C           87.71860926911015       -6.65563951602530       -2.50576254426746
C           87.70645463422375       -5.43664503557059       -1.85149832345808
C           89.48190347593797       -2.40686870564970       -1.42299033411130
C           90.76883965421953       -3.01302800424330       -1.71282988130748
C           91.70664311469126       -2.15594717397759       -1.25867102615767
N           89.65963091064393       -1.21286235230044       -0.79169503129323
C           90.99121683100249       -1.03519738053427       -0.68186531217744
C           91.64790447096604        0.05440046209659       -0.07367875476561
C           91.02334359997427        1.14634173872201        0.56065504798668
C           91.67642096473459        2.21145182709639        1.23246082989863
C           90.71424635608940        3.04275038039763        1.73808134286550
C           89.44493843172586        2.51442978941344        1.37829070207613
N           89.68305504725140        1.36556258578485        0.67143620806002
C           88.18611732883788        3.03811487581353        1.69877429530376
C           88.17140082571231        4.30720065310785        2.46717813565278
C           88.74949752486361        5.46721572638399        1.94575507130401
C           88.73340707453291        6.65068096031143        2.66245797256815
C           88.14104679806358        6.68766593550697        3.92352338698745
O           88.14699770990447        7.86404293030677        4.60123615521810
C           87.56382175049617        5.53798585400462        4.45789421621862
C           87.57803942904300        4.35908370806617        3.72921199067690
C           86.96065343518715        2.46297469062155        1.35749617676234
C           85.67508635130916        3.07795976078107        1.63474156885649
C           84.73681934000925        2.24098998433199        1.14527592281256
C           85.45061303364611        1.12057996495561        0.56617298415810
N           86.78206438139078        1.28312315806778        0.70098500264979
H           83.69733921603769       -2.25479444359908       -1.39939921046052
H           85.57627689700952       -3.91389649991189       -2.33028421393416
H           87.48130196620002       -0.68420850471649       -0.39044065607410
H           89.25775102708307       -3.53636097913964       -4.18866902693527
H           89.28156546776424       -5.70849956278895       -5.36828075000033
H           88.70368261063710       -7.92175788976299       -5.25687308938882
H           87.29343831392853       -7.53916199659029       -2.04587696838364
H           87.27573663800581       -5.36403941212996       -0.85902436074234
H           90.91429423025231       -3.97131410191219       -2.18447234732656
H           92.77997007373440       -2.25455038585706       -1.28871769164938
H           92.74568565118547        2.31542161833102        1.32194817983255
H           90.86924571424011        3.93678513820371        2.31958160750937
H           88.95937069636715        0.76067415552041        0.29764433643114
H           89.19726841529852        5.44357825149563        0.95848862304190
H           89.17358631087710        7.55342343248961        2.25726862479070
H           87.70537423779381        7.78007855727185        5.45702628749145
H           87.10720365714383        5.56993103910468        5.44131315719076
H           87.13915663633956        3.46182771846079        4.15113576582977
H           85.53155684412705        4.02991574720994        2.11961631868017
H           83.66431960750603        2.35177296769990        1.15553201484100
C          100.81988955212564        0.02680193700694       -0.03491009840582
C          101.45236868813394       -1.07622350736217       -0.64105112650776
C          100.80787960420339       -2.16260267930734       -1.28683452827708
C          101.77641883334941       -3.00836629664085       -1.75463730405375
C          103.04133666506431       -2.46521235051381       -1.40081887878929
N          102.79416300443037       -1.29515406768571       -0.73307651867449
C          104.30353061354462       -2.99236911534277       -1.70075131329901
C          104.32383237890427       -4.29615418218931       -2.40886514456665
C          104.90710880775222       -4.40883148218420       -3.67140993542950
C          104.92520993946192       -5.62426282360706       -4.33762790253521
C          104.36201368363889       -6.74912520720098       -3.73937056309687
O          104.36094123347692       -7.95949619695495       -4.35452037696487
C          103.77853256173405       -6.65100391637598       -2.47745275642971
C          103.75830031836331       -5.43183211431334       -1.82363921122094
C          105.52487332612944       -2.39065359776293       -1.39097913897895
C          106.81674104276355       -2.99187351104635       -1.67024631524847
C          107.74773090249876       -2.12244996264206       -1.22589597021024
N          105.69263770002080       -1.18913224444702       -0.77323415341997
C          107.02356845409894       -0.99924448878965       -0.66467840499966
C          107.67034164602767        0.10569007683858       -0.07678007824138
C          107.03862965379990        1.19930137718798        0.54540205481111
C          107.68492051683805        2.27752999844890        1.20354850425418
C          106.71770752847725        3.10153255296459        1.71060944540389
C          105.45133093876984        2.55664485036089        1.36431774290749
N          105.69659125061541        1.40540437412253        0.66417319693580
C          104.18925224458883        3.06889182612221        1.69000984162585
C          104.16547881144309        4.34067946608607        2.45360461086686
C          104.73255803393735        5.50393511050681        1.92730608402782
C          104.70888009394990        6.68925884062208        2.64073762578842
C          104.11935186826858        6.72515913779052        3.90315640451289
O          104.11722975394308        7.90354541712670        4.57738721662385
C          103.55285291891403        5.57238937727300        4.44230274451916
C          103.57501646935660        4.39149534009465        3.71708521785876
C          102.96810674942020        2.47950776592241        1.35728277663207
C          101.67758455895027        3.08386250703343        1.63491785444606
C          100.74593967418134        2.23590712675079        1.15179600428412
C          101.46869550912007        1.11915689141774        0.57654664395419
N          102.79886894553272        1.29467290222439        0.70740623736035
H           99.73970174782332       -2.27143478765262       -1.38353441311945
H          101.62920241360229       -3.92117557061710       -2.30839526375839
H          103.51303960387092       -0.67832512020015       -0.36966668344431
H          105.33456543521189       -3.53146260081842       -4.14380751543288
H          105.37405718626093       -5.70398782654405       -5.32191957293355
H          104.79443468515805       -7.91692169388727       -5.21746050873699
H          103.34841183856261       -7.53454395725927       -2.02221151474196
H          103.31647187305525       -5.35958429820761       -0.83603347213551
H          106.96962575452758       -3.95558814558691       -2.12832360565678
H          108.82179219014112       -2.21380847032261       -1.25265407487296
H          108.75360976604503        2.39373596595119        1.28435873834552
H          106.86734649660714        4.00117854315007        2.28478819937898
H          104.97625942527188        0.78990312987383        0.30136374210414
H          105.17767143651156        5.48132734013818        0.93880771090095
H          105.14098081008737        7.59427598683881        2.23193171843219
H          103.67827473435182        7.81827549237769        5.43443170661961
H          103.09842845556918        5.60347733102508        5.42675675799927
H          103.14476198110694        3.49190457661658        4.14289192645151
H          101.52637433669008        4.03711204294958        2.11491410981700
H           99.67251918374188        2.33723166389690        1.16375740693350
