406
 energy: -802.265834991793 gnorm: 0.000982090351 xtb: 6.5.1 (b24c23e)
C           78.85698675821740        0.04149002373408        0.01562442250189
C           79.45846658812934       -1.17725203539183       -0.26899011990419
C           78.79889966392389       -2.41308099299511       -0.52232560473945
C           79.75442743142061       -3.35853664317490       -0.76480793624261
C           81.02932796131986       -2.72815534112850       -0.67744770566992
N           80.79991762152639       -1.41829451919521       -0.36719371756106
C           82.28894886816420       -3.31408592844946       -0.84432411620863
C           82.30974624457599       -4.75234793052181       -1.20416963346535
C           81.71335707232264       -5.18977512873111       -2.38976503400373
C           81.73093172279685       -6.53146612577994       -2.73310540919111
C           82.34580253726756       -7.42928091793353       -1.87559893493023
S           82.37710719585529       -9.12781157425149       -2.30825503276413
O           82.24455999719822       -9.29659445955391       -3.72552264071587
O           80.97678641776633       -9.57176495401598       -1.61497536476395
O           83.44681850788476       -9.80411052404696       -1.63593546138123
C           82.94696817973944       -7.02635338607368       -0.69421980418803
C           82.92681051192500       -5.68165242118730       -0.36273329699201
C           83.51066596043655       -2.64993955925700       -0.70254670124909
C           84.80361693353241       -3.26856806023926       -0.93858457480845
C           85.73036277227399       -2.31699867616913       -0.70498988674188
N           83.67280970398825       -1.34534343877257       -0.35441762521831
C           85.00278270701109       -1.11684004360746       -0.33846873085404
C           85.64549137760422        0.09438759968607       -0.02078558796819
C           85.02009235256924        1.31188283008392        0.30105686115105
C           85.67367435433107        2.52442478772765        0.64884065239739
C           84.71378968876265        3.46704811476815        0.89058260217988
C           83.44255548596415        2.86040578854354        0.68793951410332
N           83.67946500170257        1.55753678529026        0.34035898758894
C           82.18343844542034        3.45069693208124        0.84033396309764
C           82.16041717685739        4.88498208479125        1.21390569194982
C           82.73451739551967        5.84391156122148        0.37528382768618
C           82.71540539026213        7.18463676017577        0.72280340912899
C           82.12163706539030        7.55315728241755        1.91900300352907
S           82.09172256483508        9.24831126445959        2.36464780090088
O           82.24912896753382       10.08218441325263        1.20962419790687
O           83.47640944435943        9.29062711055044        3.21335112090593
O           81.00851877649701        9.52075807318403        3.26261589072598
C           81.54091971916975        6.62654223334059        2.76980348757527
C           81.56192488917195        5.28926879000816        2.41029022636921
C           80.96132812331537        2.79113597424652        0.67101292358381
C           79.66084703308780        3.43588350713255        0.77548830699430
C           78.74091124083945        2.47858367148250        0.54373647151731
C           79.47791858006890        1.25293843806481        0.28849012866700
N           80.81216418911518        1.48132695227860        0.36428514439389
H           77.77175548616471        0.03737876944421        0.02322750020334
H           77.72928569235795       -2.54855563345133       -0.51089575659977
H           79.59646144518678       -4.40360944406455       -0.97629082367869
H           81.52948786326026       -0.72737381959688       -0.22731564374212
H           81.25058108548909       -4.46952062897492       -3.05437556052611
H           81.28189743506323       -6.87927210809793       -3.65494339340399
H           80.79730769118554      -10.50342278491993       -1.79087219872297
H           83.42353543681322       -7.75452724411974       -0.05001778696918
H           83.38075173533967       -5.34728729465232        0.56276257783977
H           84.95931939251956       -4.28729278912901       -1.25441701795481
H           86.80360118073335       -2.39120235650484       -0.77629008643775
H           86.74286839731681        2.64757521468358        0.71032986914416
H           84.86921104570099        4.48971397019989        1.19313849192388
H           82.95243716693442        0.87526477156565        0.15166386863585
H           83.18131503726804        5.53675792825612       -0.56314642318389
H           83.14763139062649        7.93697437683731        0.07507947080299
H           83.63483694991886       10.18078826080719        3.55042525287183
H           81.07998678589054        6.95049720756839        3.69443803259412
H           81.12450720553446        4.54684789270911        3.06747569257533
H           79.49953619941327        4.48140983701065        0.98294894218919
H           77.66576267048511        2.56370327016683        0.53156460986345
C          152.89815030659855        0.07764977034939        0.01930954631627
C          152.30419036254798        1.27217552926206        0.40467997343391
C          152.97115185120009        2.46032800167847        0.81690391984397
C          152.02123439165968        3.40093933917529        1.09753929579926
C          150.74257281214867        2.82119569430617        0.85415298620232
N          150.96417032330476        1.53568471335986        0.45037178270821
C          149.48612088578273        3.41759933708739        1.00732379346543
C          149.47016946133795        4.83642512836700        1.43697637468885
C          150.07881903793711        5.82010804676152        0.65311122564819
C          150.06496125810625        7.14639627496471        1.05233927204876
C          149.44132427381535        7.47562117750314        2.24489239686456
S          149.41535384661739        9.15305864621466        2.75348381971832
O          149.56104822212151       10.03189032444708        1.63039877555880
O          150.81092390785216        9.16769332304377        3.58519775816076
O          148.34006394960684        9.38784614178194        3.67112142359241
C          148.82717696119940        6.52376247197529        3.04255658084650
C          148.84374052019319        5.20125747945228        2.63169900883311
C          148.26132066982342        2.78067276653390        0.78750917513020
C          146.97281201149224        3.44472413814366        0.88178697237875
C          146.04057461318854        2.50970558336549        0.60675246445579
N          148.09146569778295        1.47685575896391        0.44041633471128
C          146.76038162447665        1.27952009106421        0.33744115450931
C          146.11001292748441        0.06764713635253        0.03773628571701
C          146.72858487079725       -1.15687672806028       -0.27074276109761
C          146.06933011173598       -2.38400492158907       -0.54933831678939
C          147.02387190421058       -3.32224950873372       -0.82703189027922
C          148.29696137664789       -2.69301947147162       -0.73540796588414
N          148.06712740274665       -1.38953926922912       -0.38579251036733
C          149.55210274194158       -3.27785676785465       -0.93517789442658
C          149.56605982964294       -4.70261397585276       -1.34344748731702
C          148.95540485123325       -5.10086711993762       -2.53559822938964
C          148.96783505725898       -6.43068673591615       -2.92283099645399
C          149.59185764354336       -7.35627931810421       -2.10239653699568
S          149.61533944877957       -9.04061993493217       -2.58766788310763
O          149.41012566272929       -9.16742827992793       -4.00051758548877
O          148.25937919748716       -9.51952811652974       -1.83252663126502
O          150.72438672927649       -9.72728692678163       -1.99381581253299
C          150.20801009276866       -6.99229847582034       -0.91595796417737
C          150.19329247682572       -5.65923563743427       -0.54070649468638
C          150.77766412346926       -2.62120769109086       -0.77965976027166
C          152.07299810782513       -3.22803928317774       -1.04740844071036
C          152.99846893501780       -2.28615148022498       -0.77750097187955
C          152.26971919721132       -1.10201787796659       -0.35650278390168
N          150.93477143327183       -1.33736260066390       -0.38077513215771
H          153.98341198361032        0.07464740055494        0.01475334441997
H          154.04161532431382        2.56585942535098        0.89138365199398
H          152.18561949603239        4.40598686554534        1.45068537328167
H          150.23045454609127        0.87391980113752        0.22027531530156
H          150.54801939718786        5.54455472514458       -0.28419231579526
H          150.52356832961399        7.91796229787845        0.44672108274559
H          151.01062781110301       10.06260558498920        3.88579046997381
H          148.34372804045699        6.81709283035450        3.96589840305328
H          148.37952297521670        4.43934077754726        3.24685500977294
H          146.82398370338569        4.48739955293422        1.11088139901815
H          144.96830437731350        2.61766234047799        0.57538229074606
H          145.00034021505834       -2.52217950590221       -0.53202918698070
H          146.86396094230818       -4.36119709391921       -1.06486455590514
H          148.79718063542353       -0.70170770988831       -0.23228774811563
H          148.48535534135135       -4.35910721922374       -3.17080268079125
H          148.50751516002862       -6.74792002607828       -3.85011210314136
H          148.10201861641599      -10.45861847198312       -1.98878245895175
H          150.69143989626500       -7.74144753713472       -0.30160854418709
H          150.65849529843464       -5.35544938686243        0.38972235657896
H          152.22741644319518       -4.23285684589382       -1.40613547321174
H          154.07226116748632       -2.35270312775724       -0.85428234652695
C           88.27647907299766        0.11414733477361       -0.01206224827339
C           87.05563641588465        0.10189883849156       -0.01867823877582
C           89.62874198209008        0.12207131780392       -0.00657884273143
C           90.84973869294291        0.12374475826023        0.00340724918342
C          101.74282127238219        0.14806288851796        0.08144718630311
C          100.52027179219887        0.15184636551015        0.07652226605787
C          103.09126472703635        0.14607176881831        0.08388434218357
C          104.31381881445563        0.13938877671730        0.08799427179025
C          115.20510094929537        0.12176814027212        0.07992090518976
C          113.98242023740663        0.11685723002238        0.07640079811960
C          116.55338535890880        0.12272116600002        0.07832507976250
C          117.77606696684605        0.11963882660364        0.08691507574066
C          128.66733812103936        0.13239006994634        0.10258108845043
C          127.44473812514224        0.12827694890939        0.09697203675272
C          130.01572677113543        0.13801519944040        0.10427024121415
C          131.23825360989355        0.13778649299100        0.10903945582188
C          142.12727759982565        0.06985499388494        0.05776273527776
C          140.90618451236361        0.07820770494660        0.06117677733234
C          143.47925316327070        0.06589041268279        0.04920377787462
C          144.70025760689302        0.06746916057111        0.04401611288104
C           92.25888387422432        0.13195121178662        0.01603712740583
C           92.88770864239989        0.83374000858881       -1.02812414161287
C           92.24210657141892        1.50299941461442       -2.10066985927823
C           93.20867194102236        2.05857749730347       -2.89284065113681
C           94.47382848509817        1.75210687474584       -2.32039993918487
N           94.22948113278736        1.00384817592562       -1.20096217849062
C           95.73600944689352        2.11463934801498       -2.80601797762031
C           95.75547041940827        2.94954761176007       -4.03240617168686
C           96.35507282740031        2.46909355026027       -5.19935741621028
C           96.37566012592193        3.24156490255266       -6.34878067399451
C           95.79350448129244        4.49834642050853       -6.31586609056343
S           95.82776341695985        5.48662261609698       -7.76357970633732
O           95.68773838251154        6.87478017684599       -7.43602056856907
O           94.43505960693413        4.97816281771215       -8.42661779274976
O           96.90358814620423        5.09189172488879       -8.62428955084718
C           95.19713336156440        5.00471053295142       -5.17257922928932
C           95.17795379997234        4.22162073139977       -4.03007109826668
C           96.95995627048853        1.75785195377433       -2.23775227586000
C           98.24721449927524        2.20670010394739       -2.73863003477489
C           99.18157510645642        1.65873328647023       -1.93486958015647
N           97.13306680883203        0.97070429025045       -1.14070797935035
C           98.46353611379892        0.88448806098300       -0.94121377352521
C           99.11562442315031        0.15115063175635        0.07039807056119
C           98.48552692320528       -0.59206840072416        1.08697777918176
C           99.13153519609159       -1.35522593917560        2.09402712097134
C           98.16467352504077       -1.91006818985538        2.88672510002891
C           96.89905436016835       -1.49338485794730        2.39022681117392
N           97.14397780854985       -0.70675987583989        1.29690882066738
C           95.63685930218058       -1.83125010516627        2.89233674529391
C           95.61749804292369       -2.67527600881803        4.11240867050179
C           95.03618246089573       -3.94529999603898        4.08123852577818
C           95.01786890863096       -4.73832115675877        5.21679140419814
C           95.58111539902993       -4.24423246798526        6.38209992888456
S           95.57049088538295       -5.24540166359716        7.82137509425683
O           95.44805714191955       -6.63079247637744        7.47606494620912
O           94.15512763941304       -4.74777693904145        8.44233892418821
O           96.61544100990551       -4.85466027399601        8.72135805004565
C           96.16625130191683       -2.98998782377102        6.44377034598370
C           96.18375583672382       -2.20756439304026        5.30093576319536
C           94.41222182351149       -1.44100077312176        2.34644558842700
C           93.12355352959889       -1.76811050209552        2.93165057384441
C           92.18921212270909       -1.22205962810327        2.12688523105670
C           92.90803986684770       -0.55466107062987        1.05887974398091
N           94.24040513520274       -0.69483762645971        1.22234515779100
H           91.17439854360013        1.54306215837410       -2.24356368808042
H           93.06070240253970        2.62260191584773       -3.79918952517164
H           94.94900363472107        0.62481283170148       -0.59442687752685
H           96.79567129887953        1.47902968075803       -5.20611363424570
H           96.83843001276702        2.87965155928107       -7.25829303303785
H           94.28083684995487        5.42747042923922       -9.26659021996842
H           94.76313527761641        5.99667231545784       -5.17856518593007
H           94.72839281639659        4.60463629559644       -3.12133553129183
H           98.39389166440172        2.86319612447340       -3.58081872605429
H          100.25398535794403        1.75896628584298       -1.98327062987842
H          100.19968670366536       -1.46510384123816        2.18888557413636
H           98.31329664161402       -2.55904590906420        3.73418453039928
H           96.42383583879919       -0.27796615877172        0.72525333044120
H           94.61146189575507       -4.31708936245834        3.15616772971585
H           94.57986907972378       -5.72840052795039        5.20088869534818
H           93.98041828560643       -5.19321537288137        9.28030476810945
H           96.60187633186752       -2.63741810071441        7.37021806511432
H           96.62625961924216       -1.21867835755650        5.33112562565563
H           92.97613463939905       -2.32692044107568        3.84148281306208
H           91.11608870872112       -1.24610547907947        2.22785142503130
C          105.71823815132782        0.13488284696355        0.08430793732360
C          106.34315432573189        0.80756414586893       -0.98367027217734
C          105.69225786462567        1.45658192134472       -2.06460700279834
C          106.65549698581719        1.99041389713874       -2.87632669751750
C          107.92310391132735        1.69035205028753       -2.30712533682850
N          107.68365217706913        0.96611534972585       -1.17038124233526
C          109.18321538741330        2.04044442174630       -2.80724297833303
C          109.19699577207695        2.85325804281300       -4.04846650509713
C          109.78847497791885        2.35045818277495       -5.21000502318103
C          109.80507212477619        3.10264225436098       -6.37296503849823
C          109.22729801496646        4.36166136801679       -6.35889999697740
S          109.25870808493725        5.32569033066154       -7.82343717437501
O          109.15947784612923        6.72353415478023       -7.52083873277685
O          107.83744800932105        4.85324701336672       -8.45003080319704
O          110.31033139251714        4.88508860493001       -8.69055481253025
C          108.63827657734680        4.88957216861193       -5.22148874829185
C          108.62286898155492        4.12678078927362       -4.06530631031635
C          110.41003055520257        1.69234382993432       -2.24009095803549
C          111.69448181553257        2.13340185079173       -2.75443022509340
C          112.63316838940611        1.59781645772243       -1.94726129703757
N          110.58904069855771        0.92152409828316       -1.13214173864840
C          111.92055973488851        0.83781981197238       -0.93901867529078
C          112.57810745867494        0.11569414387756        0.07735783325226
C          111.95278404519654       -0.61711752631555        1.10488618024379
C          112.60318478659134       -1.37603522100904        2.11186029442859
C          111.63986112835894       -1.92041787815772        2.91654354941992
C          110.37275767849003       -1.49984464881567        2.42830546412609
N          110.61240777631406       -0.72317096886386        1.32685490286601
C          109.11261776945082       -1.82239624338925        2.94723064361068
C          109.09961482561064       -2.65926222998737        4.17239388685719
C          108.50495365459770       -3.92342638300112        4.15382116174578
C          108.49434604782172       -4.71214763594338        5.29235652939245
C          109.07887350812338       -4.21987076733943        6.44799987468702
S          109.07998172420169       -5.21763192720079        7.89003914785711
O          108.96320324709141       -6.60618720943762        7.55328710433460
O          107.66050544422868       -4.73576001116989        8.51282083219873
O          110.12910624235467       -4.81463294884123        8.77852165035123
C          109.67617782360348       -2.97097574874186        6.49739491561146
C          109.68551180966608       -2.19254259215204        5.35158830938027
C          107.88603481930102       -1.42401370555840        2.41405239121639
C          106.60187417544931       -1.72766614952682        3.02049495420096
C          105.66331146736017       -1.17953679031323        2.22163520876809
C          106.37576772417449       -0.53645146717326        1.13489117976295
N          107.70692701434663       -0.68944236186236        1.28165847236577
H          104.62366748276419        1.49938619316169       -2.19981303781311
H          106.50292667479711        2.53584041177114       -3.79321073958746
H          108.40614992289346        0.59761822359708       -0.56088175607572
H          110.22614159844699        1.35910447045425       -5.20176645395157
H          110.26156348243487        2.72323712508535       -7.27849067455577
H          107.58696499338117        5.42908578912895       -9.18283584896740
H          108.20735313928722        5.88269750131237       -5.24225870415467
H          108.17937502470147        4.52703648604951       -3.16103464633652
H          111.83652189682354        2.77725620240253       -3.60709931144797
H          113.70527618711641        1.69750037735811       -2.00278786816621
H          113.67147757371028       -1.49095216877039        2.19872103153082
H          111.79222016888660       -2.56415376909052        3.76730889198836
H          109.89002973737873       -0.29443813977865        0.75796445780913
H          108.06394918881206       -4.29404353451319        3.23590858215876
H          108.04665111886226       -5.69801212083664        5.28602706045175
H          107.40438660623460       -5.30659776313179        9.24755149576374
H          110.12753076984046       -2.61928758846088        7.41659646809300
H          110.13738717938746       -1.20767402102961        5.37244845279592
H          106.46012988384555       -2.27297905450577        3.93938759345579
H          104.59141682036571       -1.18889192047529        2.33759802645176
C          119.18036437237124        0.11970872052894        0.08485494748340
C          119.80536899195896        0.79296366544536       -0.98279610210045
C          119.15514437758036        1.43844389881931       -2.06624460261963
C          120.11873988316013        1.97457178927561       -2.87605272132314
C          121.38588459643158        1.67962028863789       -2.30310928383678
N          121.14579682954066        0.95579142435439       -1.16616003481610
C          122.64603365561850        2.03408643709124       -2.79984972579401
C          122.66067654970792        2.84690373596279       -4.04105235099079
C          123.25782452310605        2.34638284181117       -5.20071078879408
C          123.27581221631857        3.09889647698824       -6.36341144295224
C          122.69370780184518        4.35595607211590       -6.35100156557372
S          122.72622996302016        5.31986507266873       -7.81568362681407
O          122.61228234563211        6.71687242709342       -7.51442649057770
O          121.31362819756656        4.83419367682332       -8.45130765216292
O          123.78761536315542        4.88835558181302       -8.67541873836820
C          122.09913458024462        4.88162612919155       -5.21549382109988
C          122.08239264992487        4.11849019764819       -4.05952009908739
C          123.87267226983496        1.69076540777398       -2.22911545647974
C          125.15682011395300        2.13676530644443       -2.73997100636080
C          126.09535727701088        1.60501353900202       -1.93008495384041
N          124.05153300266382        0.92091821410178       -1.12061930900371
C          125.38294683881388        0.84262230387056       -0.92358077029037
C          126.04033687047135        0.12299269247720        0.09447583156327
C          125.41504703975419       -0.61233330657020        1.12014390010571
C          126.06559815913148       -1.36938794948939        2.12836511059764
C          125.10218345003365       -1.91694318286012        2.93077982376593
C          123.83489960370500       -1.50014270936640        2.43982771411307
N          124.07448957334931       -0.72279301640971        1.33896394920152
C          122.57449281623710       -1.82657292800578        2.95593044736394
C          122.56187640555348       -2.66418889773198        4.18052879073380
C          121.97046503753522       -3.92986009369636        4.16011156918387
C          121.96170370282265       -4.72018754253344        5.29752400247532
C          122.54483015447042       -4.22805172436025        6.45395473105865
S          122.54917130959940       -5.22834089912766        7.89419082884248
O          122.44570035997990       -6.61722091335074        7.55444881076912
O          121.12341154264726       -4.75961655823329        8.51256489575605
O          123.59149131960298       -4.81799961432356        8.78739291172418
C          123.13861041969825       -2.97756061031284        6.50527417298613
C          123.14601604459376       -2.19745050219603        5.36059912412872
C          121.34805224020296       -1.43180273939787        2.42001553083494
C          120.06345392709149       -1.73899060109655        3.02373639876414
C          119.12510160492840       -1.19340953459334        2.22291474689326
C          119.83807312179717       -0.54870800227561        1.13738744232860
N          121.16922860915311       -0.69784698688986        1.28701619423764
H          118.08678745856227        1.47744469240607       -2.20442594560894
H          119.96678346397850        2.51834475870512       -3.79402684594240
H          121.86780964102583        0.58995701657228       -0.55448585358387
H          123.69888417787418        1.35654606075290       -5.19112732272061
H          123.73671872950902        2.72132459183203       -7.26746388863324
H          121.06031369942298        5.40911905462970       -9.18384241384795
H          121.66503514309437        5.87334219820231       -5.23741713766256
H          121.63458150299593        4.51709153908991       -3.15664655118464
H          125.29879128000164        2.78105047218487       -3.59232047440009
H          127.16722249468155        1.70885045686708       -1.98261675437622
H          127.13404744492294       -1.48098826604405        2.21753753541930
H          125.25476605099362       -2.56031993821716        3.78176395465507
H          123.35206659865005       -0.29573200180677        0.76886478796357
H          121.53085767623585       -4.30041722091167        3.24150292811403
H          121.51675118832283       -5.70727954160009        5.28969021898974
H          120.87293136965489       -5.32966038482786        9.24985487534339
H          123.58894121628758       -2.62603059322279        7.42503822917584
H          123.59523857384971       -1.21140307131731        5.38299926317899
H          119.92131617736875       -2.28466889411630        3.94235360011233
H          118.05299321192983       -1.20563250854700        2.33663226034513
C          132.64282633945129        0.13717736305890        0.10579247553307
C          133.26642502186533        0.82835390665860       -0.95078186334646
C          132.61413873926392        1.49524707463140       -2.02033008881025
C          133.57580696433419        2.05038643508531       -2.81909387089178
C          134.84434313052174        1.74570886404006       -2.25349488724230
N          134.60633157585397        0.99692936036976       -1.13222544794491
C          136.10325962761337        2.11384124857020       -2.74196104647143
C          136.11735675357411        2.95324477411124       -3.96513166142319
C          136.71969207067394        2.47890961033620       -5.13318551251370
C          136.73499966050568        3.25347896002858       -6.28132609305770
C          136.14525451522385        4.50651120397723       -6.24599047830887
S          136.17314557753031        5.49807237387472       -7.69216049558799
O          136.06440543024175        6.88932259627398       -7.36373754769897
O          134.75566976020835        5.02822918122964       -8.32960283938643
O          137.22853692255276        5.08034751950886       -8.56595175622716
C          135.54616068123485        5.00693626579656       -5.10141802710583
C          135.53188711181784        4.22173819347133       -3.96027650221715
C          137.33052073343688        1.75529719177273       -2.17983535528401
C          138.61485747906525        2.21672704592089       -2.67743970154746
C          139.55384823044531        1.65453621313157       -1.88931182936260
N          137.50885771968714        0.94897373652587       -1.09930234615825
C          138.84206558906999        0.85774684043615       -0.90900612272607
C          139.49740036222667        0.08865268741715        0.07049774428152
C          138.87411474395043       -0.67964199841147        1.07051582260823
C          139.52464769837189       -1.47942385646676        2.04610957557790
C          138.56306533179676       -2.03161942878875        2.84682115882508
C          137.29646408975128       -1.57673370062979        2.38759227509677
N          137.53425699735899       -0.77401308132792        1.30531150072037
C          136.03840532565366       -1.89050391020952        2.91685843731821
C          136.02863927809415       -2.74809244810846        4.12741932607928
C          135.41024908779374       -4.00061316196208        4.09820391160309
C          135.40380119431850       -4.80804873362712        5.22361707516730
C          136.01657802905089       -4.34623633241468        6.37717668138841
S          136.02499801167110       -5.36843161298157        7.80181078275425
O          135.86275350845543       -6.74700714003178        7.44380226282423
O          134.63608763143614       -4.85653911085058        8.46776671442615
O          137.10547536783312       -5.01061498669917        8.67233921523662
C          136.63775611274895       -3.10942966004877        6.43709601085986
C          136.64248605204099       -2.31218942293097        5.30436456520578
C          134.81193127090106       -1.46583213303466        2.40383508625253
C          133.52922969363019       -1.76505854049621        3.01584150309890
C          132.59020479081858       -1.19997369011662        2.22947912165133
C          133.30114323849094       -0.54904678709459        1.14621253240467
N          134.63186546929376       -0.71404239995319        1.28318980342497
H          131.54556687794346        1.53517096402667       -2.15665025634829
H          133.42177781333336        2.61337051541163       -3.72506141228131
H          135.33014404582363        0.61962122217427       -0.52974755470640
H          137.16645734696610        1.49162065353290       -5.14196863487103
H          137.19932628474498        2.89569055684891       -7.19165372848689
H          134.50448517375625        5.61319090312462       -9.05488187696502
H          135.10634134961973        5.99637171392175       -5.10522425467827
H          135.08030857889744        4.60050374556359       -3.05076494607802
H          138.75601597336976        2.89073852017410       -3.50662016819242
H          140.62583233473546        1.75731119590702       -1.94052401318135
H          140.59199764187068       -1.61301568893186        2.11621550714338
H          138.71522728189868       -2.70220187734132        3.67664409596765
H          136.81222481295259       -0.31661350027796        0.75876920700917
H          134.94765486876500       -4.34791022591524        3.18180067711267
H          134.93787103149364       -5.78532793314382        5.20857504015758
H          134.40819419734447       -5.39992257370877        9.23198754513383
H          137.11095241304821       -2.78169273942691        7.35417039952758
H          137.11304913347590       -1.33632529048025        5.33385553681414
H          133.38885323595807       -2.31972403034767        3.92933829549667
H          131.51903619269837       -1.20144499492752        2.35240051119880
