328
 energy: -605.616633430578 gnorm: 0.000978681466 xtb: 6.5.1 (b24c23e)
C           67.94318761394071       -0.05586398912231       -0.01123204298031
C           68.55546060256452       -1.29256915527771       -0.16710924617072
C           67.90658013366880       -2.55210218537980       -0.30280045932843
C           68.87097382029125       -3.51042904541726       -0.43731918557634
C           70.14057548058784       -2.86567412658886       -0.39773197601348
N           69.89938627440043       -1.53257329120016       -0.22519977419622
C           71.40534759375699       -3.45831276520912       -0.48460880486809
C           72.62030718781189       -2.77394284047320       -0.39537958880264
C           73.91982996508071       -3.40533219310503       -0.54286752404309
C           74.83767915734884       -2.42653968257040       -0.40616579282558
N           72.77037943622290       -1.43690599454582       -0.19196745412449
C           74.09799832692882       -1.19816036383492       -0.18712997895182
C           74.73013954925507        0.04800186386974       -0.00979992514863
C           74.09310271379837        1.28957168424360        0.16781820627525
C           74.73584341189049        2.53861880046678        0.37893489609975
C           73.76748038501825        3.49391578779307        0.51530133401402
C           72.50186854562634        2.85774609105048        0.38148462159154
C           71.23778796737039        3.45039350150108        0.47040852031965
C           71.19961643342570        4.91567653433908        0.68745285277432
C           71.76591619396820        5.78777646794634       -0.24630448954133
C           71.72341612061182        7.15442001992700       -0.04061710486715
C           71.11931675395864        7.67535880913385        1.10526353951913
C           71.09992095168009        9.14708647467716        1.28165313677604
O           70.49253962286753        9.54473628646715        2.40997041549814
O           71.57641668376873        9.93204761119485        0.50167941926206
C           70.55561356656884        6.80899849914974        2.04254273646189
C           70.59443751749274        5.44197056728940        1.83193317337501
C           70.02230495573907        2.76439664777088        0.37092986768621
C           68.71617127231927        3.40465195906444        0.40436242606273
C           67.80499320324694        2.42059563196067        0.26850831043874
C           68.55309216947039        1.18192950694335        0.14286194714957
N           69.88501356862064        1.42851351054521        0.20083779819886
N           72.75070743424452        1.52623256929741        0.17939863949539
C           71.43860343041904       -4.92557952544664       -0.69310279596565
C           70.86754896342993       -5.48814292116077       -1.83761802054054
C           70.89772778139742       -6.85690209258366       -2.03944304170938
C           71.49635938839840       -7.68828014579682       -1.09235038436899
C           71.55266138651409       -9.16005346916786       -1.26063915593893
O           70.98554266208647       -9.59251185526804       -2.39722519380360
O           72.05206959598091       -9.91703347156274       -0.46756050995442
C           72.06502652523587       -7.13095864954392        0.05462479021672
C           72.03888525740076       -5.76262042504772        0.25130846315570
H           66.85791338426787       -0.06767551971337       -0.01203345220589
H           66.83766249013368       -2.69344525601923       -0.29089862275008
H           68.72243379001505       -4.57260043553894       -0.54511851769966
H           70.62302702411488       -0.82589450971893       -0.14638565384239
H           74.08536365790765       -4.45224718213592       -0.73874218758583
H           75.91223608747501       -2.50048242799467       -0.45455664184244
H           75.80396618320813        2.67662711490652        0.42654829646489
H           73.91344013269853        4.54517371874323        0.70259444825017
H           72.22216246800235        5.38705891854655       -1.14441985131948
H           72.15470642060303        7.83690410637810       -0.76472886774539
H           70.52168116251788       10.51449709937272        2.44927911097795
H           70.08940466523971        7.20851804011792        2.93539374497433
H           70.16780440844403        4.76837450308380        2.56651515926854
H           68.54528027451229        4.46450473120609        0.50332466867984
H           66.72912877300914        2.49467776662695        0.24366253456976
H           72.02942858998797        0.82136870375843        0.06715797386925
H           70.41457928928850       -4.84150984246704       -2.58078561285681
H           70.45856202388639       -7.28439020475491       -2.93304959071798
H           71.06552278726178      -10.55954502619707       -2.43129412942009
H           72.52468787346758       -7.78676519031566        0.78587652968833
H           72.47019953719888       -5.33305673640945        1.14825894172289
C          128.50696953902673        0.09337976660508        0.02790147051993
C          127.89185466487754        1.27570724357057        0.41824628139121
C          128.53724250806567        2.47059553543447        0.84450443116967
C          127.57062543504669        3.39433361624823        1.12541972099630
C          126.30314794456208        2.79711661571964        0.86826576521224
N          126.54769070233553        1.51831345126753        0.45572245887866
C          125.03674375770434        3.37355606137855        1.01734967886902
C          123.82462287110492        2.71849299599553        0.78265058865763
C          122.52535452205623        3.36102588884586        0.87291115974202
C          121.60990186122604        2.41387936016528        0.58267911188603
N          123.67757238118048        1.41473565128972        0.42284545978599
C          122.35094400779384        1.19760057532886        0.30840047305637
C          121.72102588804724       -0.02284069925314       -0.00366844854446
C          122.36128296508187       -1.23526898521503       -0.31767350527427
C          121.72317491649038       -2.46941849893750       -0.61299543648765
C          122.69412483728118       -3.38933487517239       -0.89615104490501
C          123.95641662242944       -2.74143206127183       -0.79027713852280
C          125.22149786672638       -3.30495192994364       -0.98935329631115
C          125.26092961917651       -4.72183870360461       -1.42044118342519
C          124.66097985252493       -5.11272377814751       -2.62087201522809
C          124.70436308651819       -6.43395417949535       -3.02567781479642
C          125.34309855513791       -7.39146911179473       -2.23534995253884
C          125.36180084571012       -8.79522561561382       -2.71134905237056
O          126.00284161255759       -9.63445016445128       -1.88387998810751
O          124.85734641752491       -9.17179494763712       -3.73866218310484
C          125.94006538593960       -7.00761160129774       -1.03405797203739
C          125.90015068693511       -5.68363575138045       -0.63354256419725
C          126.43496064357859       -2.63030443288111       -0.81561242007685
C          127.74167178934367       -3.21325921956839       -1.07974748163849
C          128.65028548650253       -2.26023402406244       -0.79122841861899
C          127.89982282002165       -1.09251972403140       -0.36336057675826
N          126.56903045255493       -1.34872672266847       -0.40070683652980
N          123.70377473551424       -1.44554600313847       -0.42699367973658
C          124.99525755805166        4.78756787928287        1.45926264028368
C          125.59454860437653        5.78913698239966        0.69107290681271
C          125.55607103217039        7.10993887289397        1.10265301834001
C          124.92010142259869        7.45017711354589        2.29694916762392
C          124.85385879067177        8.84897787322532        2.78321381312765
O          125.45631085005293        9.72949268670544        1.96957675463337
O          124.31721071027764        9.18863499982827        3.80699854315130
C          124.32189690267367        6.45247031777161        3.06915359860634
C          124.35694126140527        5.13447129100753        2.65333654308351
H          129.59221739796348        0.10708999991750        0.03167643045969
H          129.60544000073301        2.59212072991251        0.92759087817719
H          127.71650967312104        4.39918547028439        1.48718847354514
H          125.82599340815601        0.84684194603747        0.21587112490253
H          122.35883402217252        4.39907279359843        1.11076922874400
H          120.53628878022161        2.50527791543639        0.54422300608510
H          120.65631898319033       -2.62419096195473       -0.60336678252792
H          122.55237407133491       -4.42786455275723       -1.14700819165022
H          124.17755137494386       -4.36875948915750       -3.24392589492772
H          124.24711302234013       -6.74221394197558       -3.95950649011916
H          125.97076462355440      -10.52671875574673       -2.26549947901606
H          126.43310039831364       -7.74808163397464       -0.41537001365863
H          126.35256641397692       -5.38827795932238        0.30636014506455
H          127.91465887626032       -4.21147905094801       -1.44838209240181
H          129.72568635985860       -2.30914507559814       -0.85985834066182
H          124.42232393739127       -0.74815290388489       -0.26271464203325
H          126.07597028516292        5.52799999776747       -0.24468084546529
H          126.01759295633076        7.88140197455675        0.49767217723291
H          125.36652593553514       10.61570435068795        2.35601194066710
H          123.83287460262882        6.72749501576024        3.99722736329449
H          123.90286563727108        4.35971865350861        3.26055063983104
C           77.35990038290377        0.07826687654870       -0.00242667023668
C           76.13851468331697        0.06604066742129       -0.00774443106317
C           78.71089760802822        0.08429567727839       -0.00087778839873
C           79.93247483905185        0.08439939282172        0.00659592520453
C           90.82108899783108        0.06462860715637        0.05199517366330
C           89.59851085103546        0.06209653758560        0.04103764218043
C           92.16934542707195        0.07320667792422        0.06294114502025
C           93.39199437905290        0.07218671965938        0.07456753473621
C          104.27916161397815        0.03215070826961        0.05540651266009
C          103.05649467326623        0.04207960237959        0.06340688800173
C          105.62742647885625        0.02110031969026        0.04689234018824
C          106.85002972526516        0.01372926703940        0.04506736247083
C          117.74005644691429       -0.05682421727744        0.00842986204960
C          116.51856829597538       -0.04732558767397        0.01494935873597
C          119.09117797354969       -0.05433609458242       -0.00283853092257
C          120.31255858063008       -0.04366925465306       -0.00410687506225
C           81.34004785338334        0.08411218160285        0.01379067457578
C           81.96851213582333        1.04060149788747       -0.80500168367533
C           81.32106365555433        1.97677013933210       -1.65263053767553
C           82.28678946089477        2.72097007381840       -2.27287875289666
C           83.55301733714532        2.26569585204217       -1.81392971946193
N           83.31007310184265        1.24459772968102       -0.93534201870695
C           84.81437193971232        2.73901369429892       -2.19638518155788
C           86.03851416954606        2.23247871255482       -1.75687373547688
C           87.32663702584047        2.78867832722963       -2.13126210171186
C           88.26111615441047        2.04061269154056       -1.50925962959207
N           86.21165826049400        1.18064038069632       -0.90973323683503
C           87.54233129942510        1.03650403510190       -0.74966114781956
C           88.19407244092541        0.06384299650005        0.03527581030869
C           87.56449474302391       -0.91352770274455        0.82998623322166
C           88.21151686116076       -1.90784104639453        1.60852804064863
C           87.24540248376638       -2.64250263256082        2.23969305044553
C           85.97957062205948       -2.11140024309998        1.86987927187567
C           84.71868844959157       -2.56459008468102        2.27604388713026
C           84.70327402735832       -3.68283928775011        3.24999619014589
C           84.11404976279019       -4.90558056409478        2.91801846844996
C           84.10180236334757       -5.94451791298862        3.83036541675521
C           84.67392539179866       -5.77922193238591        5.09313024683438
C           84.63170634852324       -6.92063806508540        6.03869862455953
O           85.20796431081183       -6.65885707191191        7.22164659072608
O           84.13445219650636       -7.98985663704911        5.79228146156311
C           85.26259066394762       -4.56004419735637        5.42988536524185
C           85.27862257270152       -3.52337373579681        4.51326500014201
C           83.49400365220519       -2.04872552750622        1.84745135433056
C           82.20546712645309       -2.51449263996924        2.32909225403118
C           81.27105656365021       -1.77940006897010        1.69210274012621
C           81.98994004518983       -0.85852774364388        0.83340189356026
N           83.32179534758255       -1.03795578346329        0.95279423228086
N           86.22335390255672       -1.07494448090211        1.00911842477611
C           84.83119662142198        3.87764639573814       -3.14633728074502
C           84.25432690769829        5.10079989474920       -2.79423729085737
C           84.27440804723787        6.16258344011378       -3.67965074286274
C           84.86690238013520        6.02007144391774       -4.93574163756961
C           84.86200399211130        7.18722258182698       -5.85026312335945
O           85.46358533202316        6.95082176482236       -7.02563853369800
O           84.37134926464833        8.25533170468150       -5.58623517534217
C           85.44117043941715        4.79994930825205       -5.29355294395335
C           85.42407368264851        3.73994341207942       -4.40397254888554
H           80.25278752438734        2.05874563671761       -1.77154519362833
H           82.13729543978749        3.50889677672573       -2.99277840640687
H           84.03066614771981        0.71304084752862       -0.45841425396603
H           87.47403996161979        3.64385871811183       -2.77059305291136
H           89.33413785162666        2.14247185082589       -1.53852440364043
H           89.27968178762757       -2.04044167759102        1.66793709620436
H           87.39415780832618       -3.48465963508339        2.89552586025751
H           83.67989252061831       -5.03971744430298        1.93386345119176
H           83.65042572863263       -6.89770810059728        3.57785768979817
H           85.13884794486998       -7.45069663260920        7.77938917945668
H           85.70486093934180       -4.42592782587197        6.40995974819700
H           85.72413356387932       -2.57160586355218        4.78018486626516
H           82.05774608760932       -3.28893190953985        3.06404875828236
H           80.19792066014701       -1.82833184189010        1.78398017148401
H           85.50317981268942       -0.51280812333967        0.56796477696440
H           83.80648532559609        5.21824438049188       -1.81395511001411
H           83.83454384340223        7.11652976139848       -3.41021874682672
H           85.41964402023189        7.75908323604990       -7.56188954477320
H           85.89862969432971        4.68376446603394       -6.26893826847431
H           85.85931259402803        2.78810401779578       -4.68662135365387
C           94.79630211503243        0.07834802338704        0.08268566243975
C           95.42279397305840        1.00822825357938       -0.76981881303462
C           94.77322476168986        1.91678760920733       -1.64468716273020
C           95.73722930477382        2.65077104529544       -2.28034506378756
C           97.00389394002308        2.21594117290893       -1.80408800138755
N           96.76323012237087        1.21600484231448       -0.90046576592099
C           98.26420067097968        2.68946114252976       -2.19005636154732
C           99.48949699783590        2.19964080321523       -1.73519719029531
C          100.77560020015230        2.75703125247005       -2.11431266498135
C          101.71259144983637        2.01919122078874       -1.48380164953044
N           99.66596830958105        1.15959794260683       -0.87415130818731
C          100.99719243015217        1.02090580046280       -0.71363482290150
C          101.65222886599956        0.05206531202303        0.07330985025202
C          101.02543315303161       -0.91692304566045        0.88085519789245
C          101.67435277099759       -1.91213095685678        1.65625352435042
C          100.71031323629043       -2.63740167610264        2.30176373993356
C           99.44433673960187       -2.09857208837757        1.94489282151850
C           98.18438358963259       -2.53819067142857        2.36988233863220
C           98.16995346362302       -3.65788971492730        3.34183866057153
C           97.55733607974516       -4.87015099251722        3.01303834863086
C           97.54718147414047       -5.91504320557988        3.91834539204726
C           98.14500490984835       -5.76640701660359        5.17127300842229
C           98.10581311098650       -6.91465561745403        6.10853206422722
O           98.71462941922356       -6.67282215004367        7.27926365827672
O           97.58467937726112       -7.97323445809301        5.86540417698605
C           98.75568089537980       -4.55740114935498        5.50552981206211
C           98.76934726334630       -3.51454223960159        4.59575330486140
C           96.95920029660979       -2.01422784525154        1.95407884043217
C           95.67375021411827       -2.45865985332525        2.46257496253900
C           94.73676026937865       -1.72961622144360        1.82192298027612
C           95.45159504309677       -0.83515177397181        0.93292399848028
N           96.78266505870529       -1.01929314608073        1.04145504753355
N           99.68535647398747       -1.06752598278840        1.07697980219099
C           98.27852686606207        3.80446643648525       -3.16754238748944
C           97.68961648126012        5.03176280454191       -2.85185278156736
C           97.70624728226639        6.06936259550084       -3.76567695041681
C           98.30686469211551        5.89780304419636       -5.01423785899919
C           98.29605129710043        7.03857448153894       -5.96137312686879
O           98.90609628686829        6.77446451711124       -7.12647845012949
O           97.79420424012325        8.10915651370524       -5.73044498823376
C           98.89394093388685        4.67355639587509       -5.33534312148235
C           98.88053493070242        3.63809163276061       -4.41741278422621
H           93.70496908900627        1.98964218020921       -1.76953016687327
H           95.58590078143685        3.41895126312423       -3.02090530585229
H           97.48497336808558        0.70155941944255       -0.40679502891626
H          100.92010330388098        3.60594722018850       -2.76260245373434
H          102.78521947605748        2.12495380147038       -1.51330150897888
H          102.74214677516534       -2.05208681423056        1.70418845493998
H          100.86101412135336       -3.47796776449048        2.95913388247784
H           97.10353029831271       -4.99133221724924        2.03607323255408
H           97.07797300857318       -6.86015160978834        3.66789183745839
H           98.64611163822080       -7.46842817688350        7.83171966828594
H           99.21741310978148       -4.43614277200894        6.47831828052422
H           99.23214152560595       -2.57065701677695        4.86123058396997
H           95.52979025644723       -3.21507416345340        3.21682809189285
H           93.66452648061693       -1.76755110661006        1.92893756679481
H           98.96402025617520       -0.50419792493268        0.63923906349631
H           97.23488026636235        5.17201073485220       -1.87775543300934
H           97.25647743679399        7.02635234166997       -3.52487708869772
H           98.85741891672156        7.56668964932726       -7.68582694621718
H           99.35812240274802        4.53484732117483       -6.30456662624894
H           99.32554855923580        2.68272474625429       -4.67144619755272
C          108.25444514798748        0.01118589503325        0.04581060512822
C          108.88315776340168        0.94985229887155       -0.79494928659203
C          108.23643114050897        1.87041901745452       -1.65959863955635
C          109.20213299402329        2.61740763099947       -2.27681970059637
C          110.46739477847009        2.17904868101368       -1.79900104631470
N          110.22387752110328        1.16199878671880       -0.91540991514041
C          111.72780082277939        2.66872142822822       -2.16232234697308
C          112.95247901630414        2.17329144104868       -1.70956587343302
C          114.23863360265211        2.74990421137883       -2.05974874917148
C          115.17486952008278        1.99506460908331       -1.44881536149180
N          113.12723635968686        1.10697265225878       -0.88285783465033
C          114.45925169553922        0.96677405370012       -0.71922982905962
C          115.11101974748880       -0.03446450898457        0.02586238665613
C          114.48257293511521       -1.02930743517100        0.79748008133900
C          115.12816289554276       -2.04596956610066        1.54820050089428
C          114.16277816371900       -2.77164426796011        2.19077799334874
C          112.89898354455150       -2.21386738501407        1.85480610169045
C          111.63966734047698       -2.64405594523030        2.29106519641312
C          111.62718592771803       -3.75759148864969        3.27035148573186
C          111.00687769563879       -4.97061409095891        2.96018300301191
C          110.99534739254831       -6.00323445990898        3.87968089477755
C          111.59913794796708       -5.84102108560388        5.12807984402017
C          111.55516709503438       -6.97456789675406        6.08265795081837
O          112.16483955235032       -6.71718455336716        7.24970379426446
O          111.02836458031939       -8.03414527992580        5.85664066725163
C          112.21945638035494       -4.63165818385761        5.44283013362620
C          112.23500201007280       -3.60164960244770        4.51881254416094
C          110.41498777657330       -2.10933371732894        1.88827329704633
C          109.12974671725425       -2.55044206177402        2.40042604193629
C          108.19336632974294       -1.81284013787541        1.76880858473219
C          108.90856121939234       -0.91471930897860        0.88358379734218
N          110.23899271788905       -1.10697453388065        0.98369125303349
N          113.14209103479620       -1.17303572512248        1.00003095808051
C          111.74402340855382        3.80977611769549       -3.10894268107030
C          111.13988872460342        5.02253844538875       -2.76655058350649
C          111.15756279189476        6.08533171576596       -3.65081500677546
C          111.77469447008583        5.95416702527581       -4.89625525089807
C          111.76476796413027        7.12102035948857       -5.81085606557430
O          112.39379228652970        6.89651552688089       -6.97431463253986
O          111.24711432773721        8.17911866637119       -5.55766299677980
C          112.37689013275349        4.74463433961029       -5.24414317834427
C          112.36243233443786        3.68387650251662       -4.35557509563303
H          107.16874027448213        1.94198480629086       -1.78999682694353
H          109.05346940557648        3.39690080692230       -3.00601177842507
H          110.94360601509244        0.64154666828526       -0.42517849749902
H          114.38319206104588        3.62165375217984       -2.67699200617035
H          116.24711735857775        2.10670026079780       -1.46701207489213
H          116.19497467318541       -2.19665086436969        1.58460799395369
H          114.31021034503867       -3.62401233162501        2.83363626587469
H          110.54748805095275       -5.10232612211655        1.98722408269318
H          110.51982381508626       -6.94901421553565        3.64418863408008
H          112.09042198423137       -7.50276031696411        7.81550677651503
H          112.68619112122400       -4.49976173208241        6.41179293226494
H          112.70528056464227       -2.65719770231018        4.76868071414955
H          108.98543368337950       -3.31195444689048        3.14945189307781
H          107.12142479638889       -1.84665626894484        1.88021249185651
H          112.42313056315666       -0.59221196817512        0.58173315505018
H          110.67239191135127        5.13135427378980       -1.79447311876571
H          110.69618615808021        7.03117133727859       -3.38887391555099
H          112.34289780230290        7.70337299836607       -7.51217553338875
H          112.85361465891638        4.63721558924293       -6.21125754216637
H          112.81927593728496        2.74003543699859       -4.63080758605329
