298
 energy: -525.023197813991 gnorm: 0.000633378862 xtb: 6.5.1 (b24c23e)
Fe          46.82070556803812        0.17444080817636       -0.12466429297769
C           43.46022022340140        0.49129089803846       -0.39522186575976
C           44.10809250214438        1.27379250536531        0.53841954281271
C           43.43299436139525        2.19488680661007        1.40301155313598
C           44.36625160724623        2.68281945704686        2.25364892991252
C           45.61449828250154        2.07616355040084        1.89316312046768
N           45.44431137753079        1.22242845404547        0.83746122443351
C           46.81190637033827        2.30877962938476        2.55955905306580
C           48.01820868708744        1.76056175354574        2.15430799303327
C           49.27660939965291        2.06596906471719        2.76752462877960
C           50.23296375016586        1.47100517797029        2.01531566662572
N           48.20696175593304        0.95612902792692        1.05504767540655
C           49.55530841999807        0.79156902183904        0.95488864985178
C           50.22360957036903        0.08072027858365       -0.04968440995996
C           49.55656661477366       -0.66598754847995       -1.02846330436058
C           50.23902445194980       -1.48646835746323       -1.98075240140042
C           49.28493881271362       -2.16579942985896       -2.66063758304962
C           48.02081458453644       -1.73614318935490       -2.14143065194029
C           46.79825724708954       -2.21728963625332       -2.58277868002578
C           46.78173869880217       -3.28055520257458       -3.62523905089682
C           47.16983306421444       -2.99660907499347       -4.94116076526723
O           47.54061588568511       -1.71228778877754       -5.18663668224888
C           47.95792679462574       -1.32086670771113       -6.47869605548984
C           47.15182553773620       -3.99684044480232       -5.91270681595850
C           46.74925576794519       -5.27705426440576       -5.56347589973571
C           46.35973260459445       -5.58113023113803       -4.26786859497870
C           46.37216234535353       -4.57972326780558       -3.29734154597945
O           46.01261653133295       -4.77848070424702       -2.00220754456628
C           45.58225855528529       -6.05156826407130       -1.56525417706893
C           45.58252459655933       -1.72412738038983       -2.12406524095801
C           44.31083940366008       -2.12514253153154       -2.65188824874945
C           43.37810668553779       -1.33513276043689       -2.06975173200014
C           44.07934497061886       -0.46488620360505       -1.17420415132850
N           45.42448987537171       -0.72098305845934       -1.20683609589392
N           48.20640948018705       -0.81019375320652       -1.14200120408495
C           46.80866764074661        3.22136429322716        3.73658292304905
C           46.99900927121327        2.71161582966916        5.02743616277349
O           47.16840514131178        1.36624750966180        5.11476054465833
C           47.36773744727407        0.75002059452063        6.37073890011333
C           46.99822683600820        3.56610498438793        6.12969316116320
C           46.81575214996809        4.92686660501867        5.93515432735152
C           46.63195031706506        5.45466734554691        4.66606931530439
C           46.62614113195984        4.59975110493592        3.56436249084933
O           46.46105440594516        5.02055134538704        2.28270227691456
C           46.27122293142062        6.39151682034554        1.99744258211886
H           42.38716349830047        0.61022391476677       -0.49760043017960
H           42.37749689836534        2.41312615438162        1.35891337044718
H           44.23617694786286        3.39154277957076        3.05533733115031
H           49.40022275633840        2.67202375659935        3.65028281203895
H           51.30242545772938        1.48031520642473        2.15281080383943
H           51.31059070161368       -1.53978970568913       -2.08823862818624
H           49.41413544528688       -2.89036739506013       -3.44783569975168
H           47.15937797681070       -1.45795635686777       -7.21792928029338
H           48.20397890870611       -0.25963528204242       -6.40959652953494
H           48.84764894104776       -1.87654629202327       -6.79910387765284
H           47.44721639737643       -3.78728702783332       -6.93206324663109
H           46.73813080625898       -6.05542576369512       -6.31857001225988
H           46.05104985373719       -6.58874032934832       -4.02355315020091
H           45.34419935184849       -5.94430424571001       -0.50538375631669
H           44.68508939779036       -6.37948302519996       -2.10432186321185
H           46.37103372071249       -6.80457676283527       -1.68281466873184
H           44.16713766791618       -2.90207185962896       -3.38534128332427
H           42.30953782399898       -1.32919177320653       -2.21734418101778
H           47.47885569710734       -0.31734185617929        6.17117221236782
H           46.50887559404836        0.90468971146353        7.03512960908516
H           48.27617062024458        1.12116380106178        6.86070755492470
H           47.13922434649220        3.18231586759316        7.13122470064228
H           46.81794201309916        5.59148800063168        6.79214438724303
H           46.49622944766862        6.52087982904941        4.54350106105332
H           47.13634078344928        6.98997930713647        2.30789655819822
H           46.15599603021665        6.46310272420833        0.91434797381147
H           45.36799654838244        6.78166149143968        2.48213854320396
Fe          87.04118203168396        0.08948169702475       -0.14606987072447
C           90.40865104136084        0.39361798123021       -0.35389080128673
C           89.78480166301009       -0.46476520769756       -1.23650114514164
C           90.48421901582795       -1.25702822296308       -2.20318961448266
C           89.54394761142042       -1.93863622383951       -2.89908183927704
C           88.27004617749792       -1.54195184834194       -2.37363894325368
N           88.43365447469282       -0.66692745068016       -1.33371167381261
C           87.05090910372509       -1.93780614733919       -2.91054016318028
C           85.83267260007295       -1.50102299939806       -2.41345393488194
C           84.57023795270689       -1.79740790132184       -3.02198754370477
C           83.61787674658845       -1.22766758365408       -2.24523874868984
N           85.65002032166959       -0.74038037526226       -1.28350066528828
C           84.30079875927245       -0.59648403632046       -1.15862403036084
C           83.63676335626947       -0.01812589713007       -0.06965245897807
C           84.31113658805762        0.54328630164537        1.02244486900943
C           83.64224592827340        1.04354459100600        2.18326215903583
C           84.60058929535722        1.55677780590303        2.99124458362307
C           85.84988272950365        1.38697572793259        2.31084621780774
C           87.05544472477608        1.89260241291222        2.76974249125648
C           87.06803486288409        2.66289603362887        4.04364153830699
C           86.45875620002307        3.92287365176265        4.11772692537545
O           85.88635340983150        4.37408715576250        2.97113341119997
C           85.24019706616780        5.63046590738024        2.93790744705863
C           86.47304851758808        4.64357280763894        5.31150266254484
C           87.09234602554885        4.10014641065549        6.42682338482566
C           87.70161053625422        2.85550756508713        6.37725416590101
C           87.69275999933970        2.13672395442853        5.18218323273093
O           88.25614425511668        0.90897897187350        5.03577392182199
C           88.91374352989665        0.28851666140422        6.12178234524201
C           88.25128278421522        1.73842210897374        2.07748761105320
C           89.49190498346275        2.33218874722362        2.48267360089163
C           90.42764767836933        1.93320270839489        1.58915345165998
C           89.75856241372261        1.08969490738130        0.64436266327734
N           88.42278636753056        1.00211135480483        0.93768619457124
N           85.65688150780750        0.72825250586915        1.11886419695207
C           87.04674551841600       -2.84730379901195       -4.08894454298986
C           86.57371406954194       -4.16051358028553       -3.96068458001252
O           86.15347009497562       -4.52091705748878       -2.72025738474569
C           85.64647142936576       -5.81849062594018       -2.48299490215801
C           86.56416539522303       -5.01722917602759       -5.06099262671275
C           87.02024276350885       -4.55546533550074       -6.28632108688245
C           87.48771849728614       -3.25884700607514       -6.43842133231820
C           87.50294363559215       -2.40334327255481       -5.33723181688213
O           87.93138616096779       -1.11460173661133       -5.38936621653079
C           88.41970484025980       -0.57017257002115       -6.59840131840319
H           91.48458859758783        0.50522325215959       -0.43107881414200
H           91.55693971684079       -1.27957217286085       -2.31470376787223
H           89.68483616201929       -2.63885321114204       -3.70646377950911
H           84.44260162384475       -2.36499573107889       -3.92950299966923
H           82.54749599244404       -1.23541653252035       -2.37538448869020
H           82.57721423898833        0.99659311295125        2.34530199809715
H           84.48358232890892        2.02101922025386        3.95694699516438
H           85.93635815820761        6.44674492440681        3.16591972606717
H           84.86613226917868        5.75235770288033        1.91971959620261
H           84.39684932837375        5.66707424802743        3.63815814752139
H           86.00833048074631        5.61816738367049        5.37814835901585
H           87.10079650948306        4.65969825134693        7.35578882016329
H           88.17617652022584        2.45567174106112        7.26334101986611
H           89.28178465146974       -0.66844959225281        5.74727207107350
H           89.76233541419343        0.88797075725684        6.47329460056368
H           88.22678218766494        0.10801989353212        6.95756879911912
H           89.61514923478799        2.97121000065940        3.34221797015651
H           91.47998735813198        2.16865113004526        1.56095438506382
H           85.37288801180377       -5.84875731318624       -1.42672532993358
H           86.40230902291552       -6.58807352259492       -2.68143730084786
H           84.75630873033899       -6.01930753920331       -3.09144850049256
H           86.20552746430775       -6.03385595852766       -4.97101406366578
H           87.01030143087890       -5.22090939013669       -7.14260807994571
H           87.83365915961537       -2.92438752403669       -7.40728582767513
H           87.64773853702094       -0.56451147062186       -7.37757422183667
H           88.70914485968071        0.45801103688910       -6.37337267801687
H           89.29679981087270       -1.11972578569383       -6.96135976124932
C           52.84850057533883        0.07983870074458       -0.05854611086206
C           51.62467596582302        0.08027012603900       -0.04957753737997
C           54.19482694856277        0.07910570055246       -0.05896486714921
C           55.41878703028309        0.07333758580312       -0.06393390819433
C           66.26270282585239       -0.00998424285044       -0.00333210562376
C           65.03761361731846       -0.01025681827855       -0.00864607613180
C           67.60659183889069       -0.00994030432851       -0.00186253672817
C           68.83169344861116       -0.00787041308987       -0.00181287545796
C           79.66704221196991       -0.04478537341251       -0.03582930200435
C           78.44272530670668       -0.04646419745611       -0.02867622790771
C           81.01263684036095       -0.03887775580642       -0.04572255967015
C           82.23675177691388       -0.03082099584090       -0.05592198373976
Fe          60.22929853665358        0.01964652208811       -0.03759512760921
C           56.81898917430029        0.06092254719349       -0.05832059518473
C           57.48385780741511        0.29376694759818        1.15267167021932
C           56.80289504955093        0.54680355046730        2.38350696634247
C           57.75126860118854        0.57524238200837        3.35127062997928
C           59.00768307712107        0.34623926513840        2.70464438366498
N           58.82902065844320        0.20347213546470        1.35062004987776
C           60.20892137881433        0.17800107811275        3.38128385169607
C           61.41857301759276       -0.04043283699440        2.73792413808687
C           62.66943197413252       -0.19258924417543        3.41785415783421
C           63.63035675036767       -0.23571077865884        2.46326602135078
N           61.61463233884651       -0.01795377314176        1.37775415799614
C           62.96190731375613       -0.10819501039539        1.20625075786690
C           63.64005155618106       -0.00506822821449       -0.01664102429397
C           62.97807935098809        0.10093971311256       -1.24815480844333
C           63.66385111659913        0.20871901999917       -2.49765118167035
C           62.71455611604863        0.16934657581995       -3.46390317165738
C           61.45306936942518        0.04218663866015       -2.79862214333693
C           60.24727257501014       -0.15669451587611       -3.45575034248281
C           60.25501129049104       -0.22485434087388       -4.94295579127054
C           60.01403277251890       -1.43925387171224       -5.59878288808551
O           59.78911459233393       -2.51204929938703       -4.79591837067033
C           59.53247905268456       -3.78448679042997       -5.35501675088466
C           60.02538086444547       -1.50186005063408       -6.99183599517770
C           60.27219978513163       -0.34936996320949       -7.72240283826090
C           60.51085287410580        0.86393552153167       -7.09494764599232
C           60.50530880976522        0.92622862300168       -5.70185476532195
O           60.72319002090926        2.06615148066003       -4.99571167536922
C           60.97921222874111        3.28550061036324       -5.66313742567469
C           59.03382945126138       -0.29167495877202       -2.79344241243700
C           57.77987232964986       -0.49129957558928       -3.45445287735314
C           56.82046018318965       -0.43110848571023       -2.49902044402965
C           57.49255295477896       -0.18949906483057       -1.26106582641401
N           58.84182459002233       -0.13554379497272       -1.44255171615134
N           61.63186607719746        0.02764204724790       -1.43602083169477
C           60.19882416416101        0.23512050266482        4.86897916563870
C           60.40651447293069       -0.92835885311323        5.62163456766801
O           60.60174980388789       -2.06826432367216        4.90890829541909
C           60.81294014499058       -3.29983860029728        5.56953521246569
C           60.39460147898454       -0.87702288273303        7.01514444654442
C           60.18184759978822        0.33777538119299        7.64903868696989
C           59.97730466530384        1.50236278616297        6.92460024244592
C           59.98254899788323        1.45070758766662        5.53105493681260
O           59.79729249336334        2.53511685619032        4.73371768287209
C           59.56072716572611        3.80861441740190        5.29929024225782
H           55.73627692136662        0.67090932552367        2.48079280547281
H           57.62089229046573        0.72848947341315        4.40996758442254
H           62.78737242219847       -0.24742080960821        4.48768617680045
H           64.69723728860370       -0.33467083050352        2.58403909331004
H           64.73343470573396        0.29138003846200       -2.60600589664935
H           62.84705171310983        0.21250493392684       -4.53252640237390
H           58.62778021323826       -3.77559905439794       -5.97496201264130
H           59.38286773313864       -4.46163093730425       -4.51210453701805
H           60.37971958039948       -4.13790311011995       -5.95510701550848
H           59.84440805598523       -2.43517269437941       -7.50791359250075
H           60.27900348198647       -0.39793547600784       -8.80576856724483
H           60.69932621433707        1.74734876466602       -7.69011622539271
H           61.11982648167254        4.03498317256429       -4.88217216094646
H           60.13512738541523        3.58055365129495       -6.29810776899386
H           61.88865859276595        3.22622440612422       -6.27329304741394
H           57.65855319042115       -0.64767411144664       -4.51378188803157
H           55.75213316038761       -0.52681231958083       -2.60895202500591
H           59.95162191876164       -3.57548685482836        6.18993789816280
H           60.94313892835508       -4.04675562381315        4.78432029701654
H           61.71479088311423       -3.27176186649208        6.19302547832181
H           60.54965194232024       -1.76999879174560        7.60567266862106
H           60.17546380353015        0.37787313409229        8.73275536462871
H           59.81601972326265        2.43648524135332        7.44572386762351
H           60.40819507291747        4.13999972957331        5.91149753177753
H           58.64901288370349        3.81409139321457        5.90887811856310
H           59.43482140961152        4.49472765341476        4.45976877219763
Fe          73.63628938471474       -0.01585020644179       -0.01314274362574
C           70.22890692500957       -0.00713824572202       -0.00414457133048
C           70.90407475150128       -0.15262702497934        1.21647937743914
C           70.23915797077073       -0.33271825563117        2.46891679947380
C           71.19749865937744       -0.27961867110266        3.42633545797608
C           72.44177115808574       -0.06121519535403        2.75296882381676
N           72.24852678421526       -0.03219519009403        1.39310806547727
C           73.64679821667843        0.17859884291783        3.39871505766775
C           74.84876479912208        0.34113263956279        2.72161854730226
C           76.09743292810855        0.63124613219947        3.35810048288096
C           77.05017394874287        0.57011906183892        2.39531417128000
N           75.03282671851809        0.15579508012733        1.37359166055215
C           76.37734891321149        0.25015500761147        1.17567331637887
C           77.04365232974598       -0.04239211386620       -0.02253055779133
C           76.36582956141203       -0.32452640769836       -1.21666025340758
C           77.02625727502885       -0.65260706756256       -2.44086985455592
C           76.06812970009960       -0.68869427453671       -3.39956269150777
C           74.82863473558662       -0.37590741411580       -2.75591501454572
C           73.62730233757121       -0.18251776486466       -3.42677452441741
C           73.62617975875700       -0.24471801764424       -4.91294250483765
C           72.95049842931228       -1.27556950262371       -5.58099828985975
O           72.33228231852708       -2.19092472824492       -4.79053252091669
C           71.61464452226279       -3.26579342594164       -5.36266663079377
C           72.95095329915019       -1.33128169689564       -6.97434423601914
C           73.62154202353805       -0.35431549882464       -7.69442657656489
C           74.29495727030564        0.67584024662589       -7.05581897067491
C           74.30022165261478        0.72988023245290       -5.66239594927980
O           74.92055195869030        1.70445205052739       -4.94849565533769
C           75.64287628167466        2.72660603921035       -5.60528980859822
C           72.42862243476148        0.06588717393215       -2.77240883079509
C           71.18249823430247        0.30216419586824       -3.43638740242847
C           70.22855374744231        0.34330225833907       -2.47407090436008
C           70.89853790373644        0.14351083691567       -1.22736225690519
N           72.24149367441053        0.02011606369815       -1.41188021415101
N           75.02221830657139       -0.20360328483364       -1.40769768164457
C           73.65058546526342        0.26417791733334        4.88398447551377
C           74.29192213115640       -0.71953908039271        5.64945593563404
O           74.87925842588982       -1.72582602612108        4.95170688917430
C           75.55948123020573       -2.76516408357480        5.62622438947120
C           74.28941532151929       -0.64135776275403        7.04180397869532
C           73.65282983770481        0.42262775143397        7.66251258079845
C           73.01539758359944        1.40948114880772        6.92590246033045
C           73.01064510571544        1.32874755569653        5.53379389933551
O           72.42145449563456        2.24891534711400        4.72699521556747
C           71.74865453299986        3.36219997521478        5.27983022329160
H           69.17637071941587       -0.47290383756676        2.58517243245267
H           71.08255335542255       -0.37050857140267        4.49422948008551
H           76.21928674290231        0.84324391037391        4.40790036483075
H           78.11413595105978        0.71807899718415        2.48886038148423
H           78.08644349847427       -0.82239475988976       -2.54004978343901
H           76.18090768638118       -0.89823966567292       -4.45085351577993
H           70.78662766424270       -2.90858989603404       -5.98686454823065
H           71.21143043617907       -3.84014271589518       -4.52662971584206
H           72.26801796211122       -3.91157402451226       -5.96169572746214
H           72.43585005588874       -2.12483199155797       -7.49884766613333
H           73.61925325479567       -0.39680974127639       -8.77805965794857
H           74.80777440407537        1.42586415053270       -7.64285511871346
H           76.05033525432320        3.36353762271052       -4.81809306187955
H           74.99194499842123        3.32608811457866       -6.25310036927163
H           76.46793469281627        2.31620139374765       -6.19992544174625
H           71.06274345731219        0.41026592418558       -4.50209432029429
H           69.16590529672203        0.48984000062546       -2.58349374113998
H           74.88412038486831       -3.32812011443546        6.28176763277259
H           75.94291374791868       -3.43009773572100        4.85019490933995
H           76.39902149154969       -2.37841239622082        6.21645838232506
H           74.77623765138831       -1.39847644566214        7.64174232575295
H           73.65331249976808        0.48417911667856        8.74524033726490
H           72.52896912866403        2.22959133050308        7.43674938845868
H           72.42906232756286        3.99302993052747        5.86453717174517
H           70.90921678841036        3.05023047796384        5.91296547031530
H           71.36575574058752        3.93580114957190        4.43379444053630
