252
 energy: -440.936791303436 gnorm: 0.000450021581 xtb: 6.5.1 (b24c23e)
C           38.76459493034072        0.11442620601638        0.02220438892890
C           39.38329228402064        1.24299646260461       -0.50006979970205
C           38.74107741765675        2.38822482542666       -1.04870138486140
C           39.71066045462707        3.27140518835722       -1.43280866641027
C           40.97672980167503        2.69900906240768       -1.12056325321952
N           40.72832701798407        1.47252660645175       -0.57242557039811
C           42.24433660842410        3.25429163706771       -1.33167920677964
C           42.28737603429062        4.62044756245094       -1.90702662871955
C           42.93204842114084        4.85725837423173       -3.12187896219197
C           42.97015425586615        6.13073643451701       -3.66780218243879
C           42.36445573612706        7.18966494424778       -2.99526990215549
O           42.37968958962061        8.45306873800452       -3.49261264978924
C           41.72004020792745        6.96791921841619       -1.77956515760302
C           41.68150908681240        5.69193718797303       -1.24590933978322
C           43.45355388853676        2.61746620147726       -1.04067027531640
C           44.75586324819571        3.23957174930385       -1.19875550030167
C           45.66837327142570        2.31585838478294       -0.83198534897517
N           43.59683979588243        1.35013966544525       -0.56398108992343
C           44.92236353197261        1.13567949687657       -0.44090788116004
C           45.54871416314757       -0.05333926759077       -0.01525990755936
C           44.90251171177982       -1.22224924597432        0.42910634051807
C           45.53489058945060       -2.42818291927277        0.83201777708160
C           44.56097312809185       -3.30574778784163        1.22103198517171
C           43.30280287103005       -2.65830765340918        1.07532815842693
N           43.56086098038890       -1.40633597659876        0.58201752686773
C           42.03800353904017       -3.18525822584573        1.35817546172870
C           41.99542559526590       -4.54976840828007        1.93628231236671
C           42.62635016427019       -4.82681640594466        3.15195828882557
C           42.58468081945471       -6.09661701846799        3.69963602658550
C           41.91241758038685       -7.11686353359373        3.02910951249779
O           41.89400533867847       -8.35202932101276        3.59278714319339
C           41.28277010177983       -6.85719680028289        1.81395005664690
C           41.32360005613882       -5.57996289469113        1.27690026522227
C           40.82816259344671       -2.51816300958730        1.13580904115704
C           39.52145794901744       -3.05362351850786        1.48460838339038
C           38.61553311239732       -2.13059957910430        1.10307702288102
C           39.36812047285395       -1.02633521918217        0.53501355587121
N           40.69716656283931       -1.28992027222145        0.58108906415444
H           37.67941046939955        0.13628380729264        0.02802553995753
H           37.67291299897537        2.50596878993022       -1.13846801684848
H           39.56681814860215        4.23195009440623       -1.90037354654778
H           41.44839498447082        0.82642192829795       -0.26701838232621
H           43.39226092237161        4.03168847500049       -3.65327088140525
H           43.46710061590752        6.30700381938086       -4.61578719957922
H           42.85755001310692        8.49559923121314       -4.33182500037559
H           41.25772523320368        7.80124844939041       -1.26501020977823
H           41.19347784274948        5.52390543970225       -0.29225233464005
H           44.92710015074310        4.25127824094275       -1.52919518630544
H           46.74288396967064        2.40320558304463       -0.81019832285544
H           46.59983833221827       -2.59532053161581        0.81752839482870
H           44.69838253296167       -4.31680712275189        1.56820047479037
H           42.84549506085052       -0.72148482694546        0.36108274899856
H           43.13671452367497       -4.03030612081145        3.68199833140489
H           43.06581218573430       -6.31140434075469        4.64583907101428
H           41.39829720341776       -8.97977882375903        3.05009249409309
H           40.76494788992938       -7.65542964620900        1.29300939199572
H           40.84474634547963       -5.38303557909457        0.32419669192238
H           39.34600799044772       -4.00118163539292        1.96817306006634
H           37.54094572896400       -2.16098198113778        1.19384753616668
C           93.56306387129499       -0.03944521897019        0.08719659238304
C           92.93637197378584       -1.08504578480399        0.75289786608081
C           93.57039444701707       -2.17563398797766        1.41154166933044
C           92.59496872865185       -2.97040961356682        1.94486135246604
C           91.33337146044488       -2.38501598861053        1.63859759814365
N           91.59015814585052       -1.25806176025866        0.91024772023946
C           90.06231769862826       -2.85607053216811        1.98775029437408
C           90.00956762653844       -4.08569713080732        2.81526016075591
C           89.35875414772413       -5.22777702086192        2.34673268402204
C           89.30995641728390       -6.38098757589631        3.11422123723518
C           89.91097031878604       -6.40117716328573        4.37075054398417
O           89.88481729318254       -7.50821198016981        5.15665387615218
C           90.56192875069509       -5.26675384579094        4.85207491989534
C           90.61114212470413       -4.12246873329759        4.07578125915742
C           88.85768250782520       -2.25381292647296        1.61548160871328
C           87.55164569643186       -2.72007840008919        2.04563790695481
C           86.64562223546545       -1.89610588037195        1.47964108328171
N           88.72312271722117       -1.15435071308271        0.82392035866858
C           87.39933338170130       -0.92159244673911        0.71483859004203
C           86.78089385160649        0.10509714926691       -0.02673550961782
C           87.43328881388237        1.12148574524036       -0.74892236697831
C           86.80666218104770        2.13530021898081       -1.52116912020423
C           87.78645229176320        2.92821171162319       -2.05124543910922
C           89.04298603955671        2.42748280163362       -1.61068744654956
N           88.77745300288916        1.32986152308233       -0.83479562585045
C           90.31265938413172        2.92926572255692       -1.91617744282136
C           90.36581480570281        4.15567202946099       -2.74766085875134
C           89.76519964986457        5.33914685488984       -2.31051224364575
C           89.81569847859002        6.48698180094835       -3.08132881899838
C           90.46633075590269        6.46406072568773       -4.31362352756761
O           90.49366266544760        7.60682120488338       -5.04653184229066
C           91.06618797284176        5.29055872137611       -4.76478403641134
C           91.01682590851249        4.14766662634567       -3.98201160173556
C           91.51858672461749        2.35752611168454       -1.49533686728010
C           92.83130501623017        2.92061222303029       -1.77023264441803
C           93.73048120453008        2.08490528153285       -1.21232690667041
C           92.96809771440471        1.01928099042619       -0.58636835768578
N           91.63999469077807        1.22151917086708       -0.76858627344503
H           94.64821104323551       -0.05965350345744        0.10138894499169
H           94.63735923318329       -2.32501254407429        1.45819250050869
H           92.73170168990137       -3.88756323376003        2.49451685872964
H           90.87456852124252       -0.64288018824021        0.53776976620080
H           88.90186823516210       -5.21794037884966        1.36341672979722
H           88.80801537785655       -7.26753185987327        2.74166251272497
H           89.40286865015453       -8.23050954963924        4.73186063994486
H           91.02061477637693       -5.29488124349802        5.83276638854124
H           91.10418435895538       -3.23559006876975        4.45816903226265
H           87.37374653007252       -3.55428554883460        2.70482666398312
H           85.57096925401522       -1.91784554225619        1.56491183922871
H           85.74121035535576        2.23291737285069       -1.65373174729997
H           87.65390233922352        3.77865672166550       -2.69993127044541
H           89.48983428324958        0.75436153680000       -0.39784637795319
H           89.27171326714353        5.36229400828926       -1.34523625555766
H           89.35788973091231        7.40746675617786       -2.74069775335293
H           90.97259446470473        7.48160677808952       -5.87675405075132
H           91.56739710115518        5.27592654441802       -5.72670596443051
H           91.47232183536242        3.23147950325157       -4.34099079483691
H           93.01500031208882        3.83863989224294       -2.30500182208738
H           94.80656885100194        2.16090705725003       -1.20014897787970
C           50.75107656383118       -0.14294110002379       -0.04550818711038
C           49.52284890328204       -0.13311397783142       -0.04195270374826
C           48.17822859010425       -0.11393649179283       -0.03460206082799
C           46.95467353082589       -0.08659306662434       -0.02642719276125
C           52.09573304773601       -0.14523778921276       -0.04382425593108
C           53.31971780722468       -0.13888267929249       -0.03923697670328
C           66.77916226574439        0.04279791464380       -0.06103181636708
C           65.55020742111272        0.04272222786440       -0.06479253716958
C           64.20697921150877        0.03682068125147       -0.06864900557059
C           62.98247902662965        0.02398353052857       -0.07168957047922
C           68.12240404372761        0.04240034138581       -0.05324346355023
C           69.34690942919259        0.04451056193787       -0.04220992492054
C           82.80566955533462        0.14500655822972       -0.08466794749013
C           81.57759530236696        0.14260187803549       -0.08839183004413
C           80.23249579563692        0.13579424762377       -0.08935669619300
C           79.00884863845137        0.12230746166676       -0.08339034206934
C           84.15086412826443        0.13935093149798       -0.07280056098992
C           85.37424248817885        0.12728976951149       -0.05305478196638
C           54.72513671718001       -0.12698248722467       -0.02863308115483
C           55.36601710072566       -1.22656413818510       -0.63086086350766
C           54.73020258266860       -2.32220597235714       -1.26984968199248
C           55.70562773000697       -3.15240158184493       -1.75081908738633
C           56.96647059642217       -2.59079143630652       -1.41131398647510
N           56.71001414781761       -1.42650589227628       -0.73753891913890
C           58.23259681411350       -3.09711242237566       -1.73064212981041
C           58.26340148383303       -4.39314284127429       -2.45281742918626
C           58.82877165848092       -4.48180961946904       -3.72534329406424
C           58.85737633392032       -5.68944421290477       -4.40519764067597
C           58.32332902791642       -6.83036555906691       -3.81059557461317
O           58.33364923222565       -8.03381169515261       -4.43910489754672
C           57.75830446799566       -6.75617678644667       -2.53871017053480
C           57.72714114200485       -5.54462286210930       -1.87122912125476
C           59.44909941204850       -2.48394125224997       -1.42645429741715
C           60.74492288973353       -3.06869183329969       -1.72110435589735
C           61.66998264608238       -2.19884975109598       -1.26517568669565
N           59.60916368407404       -1.28908751009422       -0.79251724611963
C           60.93809867288224       -1.09073694262320       -0.68453573705767
C           61.57861646830816        0.00856609830611       -0.07688575629299
C           60.93776285156815        1.09448398685465        0.55102827225723
C           61.57423565855519        2.17372411683378        1.21623781601318
C           60.59931106399257        2.99568828389689        1.71237495611456
C           59.33823010218584        2.44687984051148        1.35369483104422
N           59.59422448491284        1.29571397954934        0.65696015786387
C           58.07179879573016        2.95614604376359        1.66651304623711
C           58.03930960890872        4.23581324066842        2.41653455616210
C           58.60460650984015        5.39448509850484        1.87815728416438
C           58.57445694803562        6.58840658445164        2.57678605170852
C           57.98054593284413        6.63759189283615        3.83671450067892
O           57.97289828188436        7.82398778522911        4.49674864173347
C           57.41585408175124        5.48957557187066        4.38786622741146
C           57.44417953091391        4.29996013903555        3.67717957183092
C           56.85497428278530        2.35750759492237        1.33356065537684
C           55.56001798759691        2.95497998391669        1.60572179313443
C           54.63449295810937        2.09473828099033        1.13279340845317
C           55.36521798776899        0.97817095039606        0.56729684419402
N           56.69467677455310        1.16596113442990        0.69465872311442
H           53.66270181065833       -2.44657283214483       -1.35451798683735
H           55.56564990963582       -4.06653396519675       -2.30425000386879
H           57.42369044166332       -0.79901385558527       -0.38216759882837
H           59.23400524246556       -3.59202262819052       -4.19410276126553
H           59.29200283164467       -5.75078707846129       -5.39716143070449
H           58.75386249989531       -7.97432109488237       -5.30760837899351
H           57.35106107245907       -7.65200468047355       -2.08646695586397
H           57.29996797971209       -5.49061858037982       -0.87604983334006
H           60.90447463678672       -4.02329421082516       -2.19566801489288
H           62.74465617786092       -2.28079402018905       -1.29706205197227
H           62.64171799179483        2.29335328541379        1.30757674123993
H           60.74047954495419        3.89620472157695        2.28733796001970
H           58.88027402819001        0.67723368822297        0.28671545936471
H           59.05383684188246        5.36095769127047        0.89181054738139
H           59.00500565557056        7.48975561439759        2.15830283134567
H           57.53067770262189        7.74834265614941        5.35295935415153
H           56.95816425841021        5.53122665397629        5.37045250710989
H           57.01550574850196        3.40419040893018        4.11258126678045
H           55.40191978197199        3.91158308906730        2.07672321020726
H           53.56032347520067        2.18738989627031        1.14572623395872
C           70.75077060273843        0.04062950721632       -0.02499322621654
C           71.38131039003866       -1.05975605606531       -0.63790304666244
C           70.73509861788847       -2.14122966439485       -1.29003755683454
C           71.70227667054573       -2.98691060534418       -1.76072392612748
C           72.96803925515256       -2.44874589837417       -1.40216992328343
N           72.72275959888995       -1.28110292076392       -0.72971491012754
C           74.22907199478567       -2.97968966608178       -1.70059985174052
C           74.24462611436878       -4.28304142221501       -2.40941993432824
C           74.82991935268858       -4.39864954878071       -3.67075661684727
C           74.83958216081010       -5.61329379837289       -4.33862740078246
C           74.26594169224582       -6.73436383124264       -3.74319652917827
O           74.25552923225671       -7.94361896420644       -4.36048364963321
C           73.68116404012767       -6.63354372603722       -2.48209694955302
C           73.66935599636983       -5.41516827423967       -1.82670771014478
C           75.45185892233623       -2.38246340445223       -1.38812111072603
C           76.74219888562699       -2.98877452939496       -1.66313780278553
C           77.67518009192109       -2.12141503004747       -1.21874736666900
N           75.62235997322225       -1.18026277000169       -0.77235958420430
C           76.95363177587618       -0.99430643204535       -0.66203193244595
C           77.60274277764111        0.11124823590852       -0.07753670117723
C           76.97296063613534        1.20730733739401        0.54229478423731
C           77.62117533542830        2.28666264910844        1.19673801417977
C           76.65542786272748        3.11137619700680        1.70546427318230
C           75.38801888032462        2.56571867807611        1.36417495856342
N           75.63124124946563        1.41384805121747        0.66433561996029
C           74.12713323590764        3.07716587928266        1.69540393767984
C           74.10525567637703        4.35020859079802        2.45712569271898
C           74.66427026756111        5.51403372993246        1.92353669479204
C           74.63927308179753        6.70179121928457        2.63287105980276
C           74.05679779297712        6.73950593542158        3.89850510949305
O           74.05257666485927        7.92054375968527        4.56805963392301
C           73.49907925459094        5.58599268135782        4.44522219710392
C           73.52234768919853        4.40263083795629        3.72399473544892
C           72.90466064368394        2.48711012142984        1.36866173688248
C           71.61524194396887        3.08993923193154        1.65481334630835
C           70.68155122407545        2.24315399945639        1.17364217172600
C           71.40192382002121        1.12897291906874        0.59065397306392
N           72.73272473864627        1.30413124703726        0.71636674775905
H           69.66685391507522       -2.24716241404530       -1.38902536005670
H           71.55351452688812       -3.89635932959321       -2.31953998873197
H           73.44224379718995       -0.66719873389460       -0.36256667175412
H           75.26506525340703       -3.52399639282702       -4.14114244313482
H           75.28937431857140       -5.69520109544055       -5.32231408972577
H           74.69090577120711       -7.90322091014880       -5.22259652556069
H           73.24293958851385       -7.51419800085754       -2.02904258487316
H           73.22608540052643       -5.34055777324880       -0.83992376974994
H           76.89267301589669       -3.95425129314213       -2.11833272985874
H           78.74896795544807       -2.21683144210304       -1.24256674050013
H           78.69011845595273        2.40298947153388        1.27408669559910
H           76.80665407842551        4.01186951603546        2.27789081667565
H           74.91021442783921        0.79738720422234        0.30458556061347
H           75.10380860638003        5.48980106737938        0.93259650963280
H           75.06447322118717        7.60742161619348        2.21819458629893
H           73.62052244435820        7.83659046843761        5.42871932971050
H           73.05022096270717        5.61851411740009        5.43218190300661
H           73.09850720846325        3.50261539962607        4.15537925502171
H           71.46596849391129        4.04140960770405        2.13887573986775
H           69.60813742320060        2.34359652243608        1.19156041535873
