248
 energy: -440.135149124989 gnorm: 0.000525705087 xtb: 6.5.1 (b24c23e)
Zn          46.75971268313946        0.03665726949997        0.01291621017155
C           43.35138187820621        0.06069067715275        0.11334085405879
C           43.98478980502699        1.27941726296842        0.32424647548504
C           43.31466996173521        2.53004194705062        0.54714609839036
C           44.27652717903869        3.47296508602994        0.70625807606221
C           45.54743892902733        2.80675689831568        0.59399704011651
N           45.33499976710927        1.48125453999822        0.35332417071348
C           46.80134322004139        3.42309446786455        0.69024583101763
C           46.82063191514271        4.87872259455304        0.97514380366626
C           46.28221241742688        5.37701858846169        2.16385119252028
C           46.30279365124171        6.73371759765791        2.43329803538998
C           46.86048972540914        7.62331764574394        1.51012950905177
C           46.88174098725467        9.02019388941878        1.78277996333224
N           46.89921790739874       10.14953426286755        2.00306576954423
C           47.39768758347176        7.13044174434243        0.31713840032441
C           47.37872269657305        5.77194146577708        0.05741430435280
C           48.03846998670920        2.78613872258540        0.54166854745343
C           49.32048435739166        3.41538652106199        0.70155945704290
C           50.26317488991337        2.46150833038534        0.49213887427319
N           48.22702921964547        1.46118217477939        0.25230644523785
C           49.56814493177261        1.23992507143208        0.21030958712417
C           50.19496077971856        0.00897528138166       -0.07117241625700
C           49.53596252392699       -1.21021344248712       -0.32860629655878
C           50.19670278532399       -2.44045433073131       -0.65182807511493
C           49.22962087833096       -3.37779065156311       -0.82129685287503
C           47.96728405941161       -2.73027425934467       -0.59205477151908
N           48.19100769609504       -1.41011856218939       -0.30588746615449
C           46.71419268848795       -3.34805691287322       -0.67413332650849
C           46.69416687289083       -4.80205672141395       -0.96635871325774
C           46.07174683901172       -5.28574247652660       -2.11969337564391
C           46.05313737665540       -6.64108012862052       -2.39587088092078
C           46.65598560328488       -7.54421906574451       -1.51519821025175
C           46.63700957166000       -8.93979223652649       -1.79450403201268
N           46.62189079124899      -10.06826801507347       -2.01954264662201
C           47.27785520056624       -7.06607990696012       -0.35785472615540
C           47.29687435574462       -5.70893893656753       -0.09114524965753
C           45.47709616317940       -2.71410472509944       -0.50192169328663
C           44.19260048803747       -3.36263513884652       -0.53711235693831
C           43.25526943681104       -2.40710572411450       -0.31818614086385
C           43.95472440543980       -1.16610154117869       -0.13559748781546
N           45.29784033341607       -1.38636179409583       -0.24687209039157
H           42.26629486209168        0.06776265452758        0.14628763679465
H           42.24398230243592        2.65967715840916        0.56867884063095
H           44.14186618065059        4.52957117248226        0.87382806496512
H           45.86031355031183        4.68929474423620        2.88810574861862
H           45.88903472196706        7.11180700839291        3.36085213126098
H           47.82733831963436        7.81738072261401       -0.40258984323447
H           47.78594867364326        5.39461842528499       -0.87388257893785
H           49.47785940512855        4.45121627839366        0.95560116609749
H           51.33567166134841        2.56703561374433        0.52989935785989
H           51.26422764153826       -2.56191189052505       -0.74401186590738
H           49.35789711298538       -4.41371067320079       -1.09090373761443
H           45.61428858042644       -4.58779197950476       -2.81188892407046
H           45.57333327647849       -7.00766737073928       -3.29583429055132
H           47.74292417602834       -7.76342981231674        0.32910388211255
H           47.76918360682395       -5.34336710613278        0.81372623948690
H           44.03324811431116       -4.41705906188788       -0.69650226498788
H           42.18361966550360       -2.52215198106131       -0.27394446901652
Zn          94.92127839059954        0.00711708937958        0.03204161230699
C           98.33034802652918       -0.02167915125496        0.10068839783045
C           97.69579852179776       -1.22570748942238        0.38104894403436
C           98.36505158975842       -2.46491701079303        0.66266043153732
C           97.40255034775230       -3.39607233094974        0.87723082280381
C           96.13212400737012       -2.73345351347896        0.74045929716344
N           96.34542878242982       -1.42237933046721        0.43120011291092
C           94.87791912635289       -3.34194136322233        0.87484740772267
C           94.85876838663734       -4.78124686137920        1.23328265556345
C           95.40355412554767       -5.21864604544397        2.44290221849530
C           95.38428239949869       -6.55983199781121        2.78120880853972
C           94.82138787563264       -7.49503776672933        1.90759307273474
C           94.80191254590143       -8.87623631183381        2.25100729723809
N           94.78632135232898       -9.99297619057514        2.52850720054586
C           94.27749587938577       -7.06325164954152        0.69413487013112
C           94.29530825441958       -5.71974104804526        0.36541132743877
C           93.64086900464372       -2.71114698220996        0.70124586262096
C           92.35869870421834       -3.33012673572735        0.89678935959460
C           91.41635877174546       -2.38558266614721        0.64765937918394
N           93.45284992237994       -1.40107585061039        0.35086519194171
C           92.11171855528033       -1.17938197548435        0.30625228126345
C           91.48575528268687        0.04035181487351       -0.02044093998647
C           92.14477320822978        1.24574974500282       -0.33447892690888
C           91.48346656642813        2.46198041325119       -0.70641364541772
C           92.45102321695167        3.38604897310566       -0.93499606054465
C           93.71452549853841        2.74521951477689       -0.69323150084004
N           93.49068047054355        1.44164295609923       -0.33953398915707
C           94.96842905500395        3.35237264324282       -0.82653520577318
C           94.98973409378186        4.78757105482600       -1.20046025618267
C           95.59488222641134        5.20053083521834       -2.38995111723275
C           95.61362763932550        6.53730355138494       -2.74508070618985
C           95.02843280728844        7.49285171203128       -1.90892753353238
C           95.04659429180631        8.86937618026685       -2.27065711780774
N           95.06087249228136        9.98263073727716       -2.56199757917479
C           94.42470821354368        7.08578979779647       -0.71536404080913
C           94.40536339579540        5.74655918443183       -0.36956940224620
C           96.20564674193145        2.72341079605713       -0.63814579380515
C           97.49154583036368        3.36446367757740       -0.72422475032467
C           98.42865559695549        2.41895309287044       -0.46474448296159
C           97.72785411780482        1.19204458497372       -0.20718920135293
N           96.38415344410274        1.41068801723244       -0.31439355356636
H           99.41568111220154       -0.03053153280631        0.12347327697674
H           99.43560838850192       -2.59588506994598        0.68242465478264
H           97.53635678279579       -4.44307386078455        1.09747641865849
H           95.82969915277268       -4.49515478890461        3.12881847919151
H           95.80323291975229       -6.89039496203262        3.72446011776823
H           93.84371815583781       -7.78574107209783        0.01270857221040
H           93.88308938607874       -5.39023915611838       -0.58169692785906
H           92.20106737662857       -4.35266291150137        1.19983332438986
H           90.34391700093292       -2.48731405730527        0.69596223101065
H           90.41512489056910        2.58311254214677       -0.78912567960083
H           92.32219353587996        4.40829149095502       -1.25229675567560
H           96.03844284370561        4.46132215903363       -3.04749645839652
H           96.07957858701485        6.84865799451694       -3.67270085868011
H           93.97368904178192        7.82410011058937       -0.06268875386891
H           93.94710296377492        5.43651928737956        0.56283076221421
H           97.65188090446536        4.40812346629030       -0.94260798642415
H           99.50108584409004        2.53246226421178       -0.43949685849562
C           55.39699528524714       -0.00241599372764       -0.10563612055426
C           54.16839221698505       -0.00621820367313       -0.10896236116648
C           52.82416732900887       -0.00509982621348       -0.10197439508913
C           51.60004624295136       -0.00268846886883       -0.09291850818423
C           56.74107105461457        0.00297782241943       -0.09909988006071
C           57.96533100913221        0.00967989061840       -0.08909043450853
C           71.45352273157428        0.01996324009685        0.02889992757998
C           70.22471302327109        0.02026986902885        0.03170491898891
C           68.88087172606191        0.01772130742496        0.03025798820613
C           67.65642430519976        0.01663510188633        0.02671241335801
C           72.79735218974564        0.02294790050597        0.02328699316860
C           74.02177216149005        0.02676245516999        0.01693932994230
C           87.51103211679971        0.06415282691531       -0.03597110481011
C           86.28272938438469        0.06551724434148       -0.03774772673028
C           84.93799121018080        0.06408292301402       -0.03345683503691
C           83.71395765657549        0.06036518262483       -0.02876366531381
C           88.85590215843669        0.05935975933003       -0.03525728367726
C           90.07978103815179        0.05416514470630       -0.03313239744774
Zn          62.81086021818137        0.01395796352408       -0.03124706578799
C           59.36994950700704        0.01251845869338       -0.07575670934445
C           60.02071040641751       -1.15937395357013       -0.51276619005756
C           59.34979253942900       -2.35141480071529       -0.93927221771208
C           60.31102830173879       -3.24386627949862       -1.29003855152680
C           61.57902699492892       -2.60014514155314       -1.08883680112718
N           61.36576000744547       -1.33714001033448       -0.60559590095112
C           62.82910754906214       -3.18252550511518       -1.32709994832223
C           62.83710241728082       -4.55611367786312       -1.88785354569972
C           62.27411751921847       -4.81308239410922       -3.14011915305011
C           62.28434052477845       -6.09122811623998       -3.66904830977999
C           62.85610993013699       -7.14357204841448       -2.94775505452752
C           62.86724004434956       -8.46048867771744       -3.48797612790600
N           62.87651791794993       -9.52471837840902       -3.92566840407505
C           63.41755220738013       -6.89266474994998       -1.69220821936730
C           63.40892602508126       -5.61075393582332       -1.17240627432189
C           64.07244521933653       -2.58742690902772       -1.08620401850379
C           65.34757061867862       -3.17712567145757       -1.38491925537559
C           66.29863680614345       -2.28374654237219       -1.00987912203087
N           64.27162075064739       -1.34286584216840       -0.55135892723774
C           65.61433958494050       -1.13792657234397       -0.48835687409566
C           66.25205381051465        0.01479621195859        0.01424983306336
C           65.60061604422214        1.16616071927222        0.50207794700188
C           66.27011055300306        2.31179062439498        1.04277352341586
C           65.30896282233556        3.20527364640630        1.39105940459396
C           64.04262074902846        2.61599261302688        1.05617529056115
N           64.25658651599814        1.37090189673062        0.52835343446989
C           62.79316665998191        3.21291852660080        1.25859434235336
C           62.78621306857185        4.58989401200337        1.81082315230121
C           62.18250876647851        4.85771763524930        3.04168103700935
C           62.17738347071966        6.14006313716229        3.56049813268556
C           62.77486530713354        7.18580199445364        2.85053071557087
C           62.76924305502931        8.50717349893520        3.37986445595267
N           62.76521287788459        9.57540228018717        3.80784685274022
C           63.37805577854203        6.92392337670622        1.61675572406529
C           63.38412261902497        5.63800660933281        1.10699855279869
C           61.55003648631573        2.63013812987374        0.98668949294204
C           60.27678268863105        3.27420705524241        1.15033595740684
C           59.32563419712793        2.37948759781847        0.77841364291362
C           60.00824240346700        1.18616736959863        0.37477297510016
N           61.35027358397677        1.36518651832880        0.50264566203234
H           58.27986519366169       -2.48422819814264       -0.95885411803880
H           60.17440636341274       -4.25369760455979       -1.64184936870924
H           61.84053187804628       -3.99735123956411       -3.70762897027838
H           61.85129093917669       -6.28132027996228       -4.64413283467518
H           63.85806887472746       -7.70670037519708       -1.12851261393527
H           63.83508802691726       -5.42223760223277       -0.19347092185424
H           65.49561645694682       -4.14498816298421       -1.83603716987977
H           67.36989157715797       -2.38242795488675       -1.08366642140035
H           67.33888307152442        2.40999164830679        1.14706272896853
H           65.44442550707173        4.17281694597147        1.84681251471377
H           61.72881898490020        4.04731405118453        3.60104613570034
H           61.71211427509503        6.33863782047755        4.51891245145965
H           63.83908869221629        7.73264736228364        1.06187098729520
H           63.84242094861023        5.44109603493046        0.14435914824734
H           60.13014299950559        4.28571773325237        1.49316357044644
H           58.25551225417728        2.51185999748149        0.76845668468531
Zn          78.86739053700514        0.04460664358681       -0.00885092184470
C           75.42622307008506        0.03163072867748        0.00903606623384
C           76.07273461022434       -1.13654112847698       -0.44400545688479
C           75.39794320338626       -2.32899002176150       -0.86343134917769
C           76.35562762534954       -3.21815067354786       -1.23159674067900
C           77.62527231770105       -2.57211881126757       -1.04806191506103
N           77.41646231605364       -1.31068717990018       -0.55844862412807
C           78.87271003956336       -3.15197108843490       -1.30452188803250
C           78.87419467897759       -4.52482341609588       -1.86732072832094
C           78.29466670596828       -4.77962561801060       -3.11250255785576
C           78.29621315521563       -6.05713627631006       -3.64301016261249
C           78.87585313415320       -7.11107769210551       -2.93039547892346
C           78.87651744727337       -8.42762145524526       -3.47163987195752
N           78.87688783432615       -9.49212562495708       -3.90878734072366
C           79.45458271552819       -6.86221504653584       -1.68229414661563
C           79.45448893107341       -5.58088161508956       -1.16090508498380
C           80.11850678105064       -2.55508026053581       -1.07999372807940
C           81.39041837341884       -3.14387809460487       -1.39399136945696
C           82.34512013655939       -2.24829962908449       -1.03382458009745
N           80.32282633168724       -1.30919196725281       -0.55086311585950
C           81.66625745402939       -1.10163207641370       -0.50693305612133
C           82.30849076974771        0.05595562360882       -0.02288323565720
C           81.66253433280762        1.20939960273179        0.46599334442456
C           82.33796553853489        2.36072527842478        0.98702474240569
C           81.38031322390147        3.25122951127226        1.35192438934992
C           80.10988698288587        2.65441776509489        1.04711593450789
N           80.31815618255486        1.40871915132694        0.51920844101555
C           78.86209362821462        3.24502791929413        1.27770560987051
C           78.85989908910635        4.62225514948045        1.82933707265126
C           78.28303873395227        4.88687515349742        3.07370792958440
C           78.28107622247768        6.16952178353330        3.59175020894277
C           78.85482363403339        7.21875289833168        2.86753058454222
C           78.85178005895060        8.54053321237651        3.39585746700786
N           78.85129083098111        9.60933602219887        3.82233588206586
C           79.43122546272747        6.96003700058785        1.62033974465798
C           79.43428490046975        5.67381866394765        1.11129001889341
C           77.61640835290216        2.65558885294671        1.03471648247306
C           76.34383225212669        3.29335713549188        1.22669331277030
C           75.38924485814655        2.39490749454264        0.87339175655404
C           76.06875942124348        1.20547536072612        0.45310521244563
N           77.41218934369388        1.39008205707011        0.55363851845486
H           74.32814521587113       -2.46429661909274       -0.86647247052968
H           76.21584261097630       -4.22733752717327       -1.58402401988657
H           77.85445336403068       -3.96273292795285       -3.67320770621494
H           77.84988744831655       -6.24557397714819       -4.61242452377143
H           79.90141596143194       -7.67747278810506       -1.12537530597156
H           79.89376400677897       -5.39410513648240       -0.18744208201555
H           81.53376775293015       -4.11278262727260       -1.84440867457976
H           83.41544184447903       -2.34554857538666       -1.12177866773242
H           83.40822808329045        2.46435523086712        1.06808956732408
H           81.52086360299462        4.22137988286198        1.80052645188235
H           77.84781502645156        4.07383324276702        3.64380750386388
H           77.83648174616437        6.36568818286193        4.56042367712711
H           79.87363810446783        7.77148518634248        1.05440525199835
H           79.87141230993662        5.47933093862634        0.13836756283412
H           76.19973085961070        4.30363535219230        1.57417395293269
H           74.31856237313899        2.52236743186989        0.88614576134650
