486
 energy: -962.231776890176 gnorm: 0.000716113649 xtb: 6.5.1 (b24c23e)
C           87.56337903463901        0.00961837128722        0.08545730267081
C           88.15879393294701       -1.20615927403719       -0.22364558214491
C           87.49463076610057       -2.43764911674064       -0.48567935056358
C           88.44566116836627       -3.37864094548920       -0.76150119858153
C           89.72195601019624       -2.74996048979620       -0.68450108022573
N           89.49837813662215       -1.44557912405801       -0.34836206509703
C           90.97817842993244       -3.33438387397592       -0.88000252326362
C           90.98985082570354       -4.76608924043435       -1.26712883444809
C           90.38940463030160       -5.17639834834138       -2.46023994046577
C           90.39861497328897       -6.51122716519504       -2.82987164726828
C           91.00844812664243       -7.42934847980141       -1.99046247459296
S           91.02826877168573       -9.11973577976519       -2.45507211780288
O           90.87929254081263       -9.26435707753446       -3.87364401786994
O           89.63157557744201       -9.57173539263899       -1.75920016285482
O           92.10305987436547       -9.80963305432410       -1.80574296306783
C           91.61274204811960       -7.05336508175511       -0.80180187998723
C           91.60168893714146       -5.71516723144699       -0.44438687436778
C           92.20330813901053       -2.67663673650697       -0.74185560703533
C           93.49133099973012       -3.29669471355118       -0.99909335648103
C           94.42414227650698       -2.35257073180851       -0.75895908031240
N           92.37431046481616       -1.37766853448252       -0.37512209140885
C           93.70481634949368       -1.15522563647308       -0.36821212401408
C           94.35606131030532        0.04934201009495       -0.03767578591230
C           93.73509707941598        1.26535950238141        0.30273403603620
C           94.39419054260492        2.47396823416871        0.65238386974458
C           93.43843050033023        3.41833404968413        0.90443410526813
C           92.16439465640190        2.81601393524148        0.70801619429130
N           92.39557213364901        1.51381099453647        0.35328471883696
C           90.90825315510254        3.40967377014963        0.87310196708433
C           90.89363775893142        4.84472090421024        1.24422994875471
C           91.46323563216241        5.79914487515034        0.39722174802168
C           91.45047544284142        7.14114671076303        0.73969561885377
C           90.86789890821339        7.51591013298772        1.93958221344179
S           90.84437629344828        9.21335487439172        2.37682195085467
O           90.95467993228164       10.04336340883196        1.21327571767088
O           92.26102219728638        9.27111870950150        3.17043873673984
O           89.79249524901775        9.48212139595412        3.31209349007082
C           90.29291124234602        6.59391714969718        2.79913610359913
C           90.30737143596194        5.25514968682334        2.44451220292023
C           89.68239470565338        2.75359016593441        0.71796908902466
C           88.38473026189484        3.40038501826529        0.84280502973343
C           87.45967948419558        2.44462238107725        0.62536542664246
C           88.19056349522977        1.21849288761092        0.35562748259733
N           89.52621583471927        1.44454314677754        0.41110358496396
H           86.47844696915654        0.00654142632508        0.11210425597729
H           86.42533430496182       -2.57343375292673       -0.45799752355153
H           88.28422823111674       -4.41976937228081       -0.98933248014504
H           90.22994736879060       -0.75649820890531       -0.21001014511754
H           89.92962960673447       -4.44045238210675       -3.10959710391964
H           89.94705809843836       -6.83814633941065       -3.75812583293658
H           89.40635572094217      -10.47341188251010       -2.01888477589800
H           92.08465480791371       -7.79705675402594       -0.17207109350326
H           92.05884779505502       -5.40146997648235        0.48673888520309
H           93.63954334200189       -4.31147700600391       -1.33085798902462
H           95.49642618566079       -2.42989071856689       -0.84035909999454
H           95.46405844232683        2.59420067513016        0.70695810921442
H           93.59886267936696        4.43923105550557        1.21029941529508
H           91.66527418011165        0.83493201705524        0.16499761325930
H           91.90115525771414        5.48736087182326       -0.54386817135135
H           91.87875740064952        7.88989511688169        0.08521029286550
H           92.45418716253161       10.17706619517198        3.44093031776214
H           89.84110275068593        6.92238057028417        3.72667555154320
H           89.87411584866054        4.51653691520094        3.10870078281889
H           88.22803041552741        4.44596887180462        1.05346876911763
H           86.38460470498221        2.53145539245510        0.63023125980159
C          190.56360090974175        0.04043031249156        0.09316438889460
C          189.96529708702630        1.23410387140946        0.47454493961703
C          190.62669939324809        2.42152381383005        0.89744833642123
C          189.67310353803720        3.36284440947118        1.16337014234585
C          188.39799408321298        2.78308028592040        0.90279884117887
N          188.62479216025872        1.49797388290792        0.50095773311104
C          187.13991167591215        3.37865194869733        1.04565727450822
C          187.12248810350576        4.79894457077984        1.47212600948564
C          187.72121477120214        5.78043321151377        0.67806312407044
C          187.70599124191833        7.10873950463237        1.07042192100396
C          187.09182550801637        7.44170992698039        2.26683946250674
S          187.06479321701650        9.12174637575051        2.76718642796675
O          187.21292163972748        9.99647109417962        1.64090933152372
O          188.46043530834001        9.14321717189625        3.59883972473405
O          185.98732247928322        9.35864714032334        3.68126870859268
C          186.48866850500985        6.49173795392890        3.07507131882047
C          186.50578491552230        5.16713990109340        2.67059736787756
C          185.91683233341104        2.74233344630311        0.81806028183424
C          184.62724853074394        3.40288616386665        0.91903701453870
C          183.69688804084001        2.46930842703606        0.63274477839397
N          185.74926067488005        1.44163963859193        0.45581932609604
C          184.41926722155594        1.24443019834954        0.34697232335194
C          183.77054400873305        0.03843257204504        0.01600403491063
C          184.39426526717810       -1.17705760582150       -0.32075362969108
C          183.73869349878066       -2.39551865384293       -0.64151747669610
C          184.69686652106859       -3.32744539408197       -0.92846399854531
C          185.96874327121768       -2.70279377536736       -0.79890742186393
N          185.73413360840098       -1.40776067235275       -0.42117917693690
C          187.22645488422970       -3.28669690382159       -0.98548354081357
C          187.24497277032938       -4.70217698064378       -1.42503074752123
C          186.66113909266326       -5.07086885463696       -2.63997648908219
C          186.67925954330269       -6.39132531859064       -3.05757572024807
C          187.28155747794150       -7.33778637780075       -2.24454195191041
S          187.31286181048364       -9.00987700439181       -2.77000909895118
O          187.18056287140899       -9.10132750118842       -4.19449518418979
O          185.91154689921882       -9.49163974027220       -2.10373404420010
O          188.38209239576702       -9.72190523095531       -2.13491468158528
C          187.87019663021223       -7.00340309227569       -1.03572266574736
C          187.85017791790210       -5.67924141979947       -0.63011571832098
C          188.45071827116848       -2.63857533470138       -0.78919715189799
C          189.74940565022675       -3.24640416927873       -1.03790378674642
C          190.67232067579548       -2.31348913743062       -0.73064799280276
C          189.93899081072533       -1.13304686620082       -0.30750426695547
N          188.60394966131048       -1.36251077594865       -0.36460079521409
H          191.64873811229671        0.03437919225282        0.10892844544008
H          191.69601722550740        2.52664340480760        0.98755336635285
H          189.83222331112995        4.36837376065918        1.51764501755559
H          187.89465462149317        0.83645846829302        0.25911223542089
H          188.18416366934710        5.50117445404486       -0.26127066288112
H          188.15616006335568        7.87885309140117        0.45665417330359
H          188.69148670799535       10.04918541500238        3.83753854212400
H          186.01301583239561        6.78804976299828        4.00150691642694
H          186.04948680828909        4.40671560775243        3.29346512270534
H          184.47653896801882        4.44220488108618        1.16177972158650
H          182.62444893435082        2.57547759177025        0.60202418546404
H          182.66947871280919       -2.53278836677245       -0.64511701368304
H          184.53972013107881       -4.35956425061089       -1.19598839943848
H          186.46251664287337       -0.72521133450241       -0.23885967975681
H          186.20800201161575       -4.31310195197421       -3.26853688791781
H          186.24032119052364       -6.68554380435304       -4.00264621015985
H          185.72426246210975      -10.40650858738286       -2.34693557267678
H          188.33694050663195       -7.76806516050307       -0.42761278195318
H          188.29416062551655       -5.39872463801001        0.31782524294657
H          189.90814718732463       -4.24560044260597       -1.41017232255962
H          191.74730815501002       -2.38344197773993       -0.78423697222363
C           99.56060214882348        0.08351750650718       -0.03264087530795
C           98.33266893870226        0.07585096534005       -0.04008693959327
C           96.98705983678393        0.06647459786829       -0.04555218580082
C           95.76374757221717        0.05354080780017       -0.04576747019330
C          100.90597933377748        0.09553710750258       -0.02004844560909
C          102.12937224325067        0.10574970309253       -0.00311239970953
C          115.60636867379937        0.11733769173010        0.08124008404621
C          114.37744651057926        0.11773113807407        0.08022712579481
C          113.03382224359616        0.11932904620776        0.07640012947874
C          111.80933484682910        0.12482712374112        0.07013767408641
C          116.94994088429273        0.11730259381510        0.08140750838615
C          118.17447821768543        0.11801562872352        0.08381051657685
C          131.65455957192273        0.08909458814660        0.06186242975369
C          130.42552951307999        0.08910176417978        0.06154864956065
C          129.08192105101932        0.08974140382895        0.06236040761938
C          127.85730373512465        0.09284032574337        0.06316780957628
C          132.99815957267157        0.09273554729371        0.06237179169596
C          134.22277438419772        0.09579791340761        0.06670468492165
C          147.70367461142865        0.09030407788686        0.06017985922454
C          146.47468057194308        0.08876315041915        0.05808229106405
C          145.13110118287557        0.08676978328007        0.05888172680679
C          143.90647176866207        0.08881545332878        0.05773605001522
C          149.04725507853257        0.09473273715977        0.06133562197956
C          150.27187666925079        0.09741907786935        0.06757207784198
C          163.75103625071813        0.11246561696817        0.09120214038926
C          162.52212954439378        0.10978213221523        0.08733044924776
C          161.17857194578556        0.10632634637013        0.08508703810986
C          159.95402207269566        0.10556100586236        0.07959768259615
C          165.09462906113248        0.11635028081876        0.09476743902091
C          166.31914436471521        0.11912036911945        0.10072064017788
C          179.79414646907748        0.03651776165772        0.02881786003630
C          178.56628446006627        0.04125794610278        0.03519257061886
C          177.22105687586063        0.05269533026914        0.04632357604288
C          175.99752011970295        0.06522678569958        0.05620987362849
C          181.13959173792205        0.03357096946489        0.02055194134455
C          182.36302842968686        0.03620696456735        0.01603541253005
C          103.53585821379494        0.11852562694986        0.01244332039674
C          104.16826632329085        0.80969568264718       -1.03801737765832
C          103.52687236748834        1.47078267472587       -2.11754096074305
C          104.49651659878674        2.02619590301767       -2.90640264156887
C          105.75923513355616        1.72628964121990       -2.32538025197489
N          105.51049755546846        0.98192767098772       -1.20424199295006
C          107.02226377893345        2.09212031585161       -2.80690694449744
C          107.04032611700282        2.93022211872046       -4.03138757125345
C          107.63809088012171        2.45455790842245       -5.20109012846704
C          107.65444707561095        3.23068765259201       -6.34825653264590
C          107.07013692869901        4.48625852123663       -6.31013556794013
S          107.09728527952633        5.47884932033332       -7.75512872504604
O          106.97321789423313        6.86820358555193       -7.42475177148997
O          105.68971543882111        4.99018388313621       -8.40211152415636
O          108.16026966982115        5.07472448059306       -8.62678689820211
C          106.47598734396952        4.98821346267445       -5.16367096224826
C          106.46092155735975        4.20152219103505       -4.02367989146295
C          108.24653025787518        1.73737480293831       -2.23821122651675
C          109.53329491676932        2.18583372586471       -2.74095621001967
C          110.46882080732661        1.63594109278345       -1.93991364378342
N          108.42115242293822        0.95004788474194       -1.14142088385964
C          109.75209991858948        0.86250827656277       -0.94485929000596
C          110.40489758331839        0.12971047487649        0.06709154440486
C          109.77177539057483       -0.60369642088181        1.08923503568338
C          110.41371327622818       -1.36078727864161        2.10318498971417
C          109.44396349606808       -1.89950537189166        2.90347368604137
C          108.18047621221147       -1.47933200360237        2.40437507085572
N          108.42943487013127       -0.70723640756587        1.30172614605850
C          106.91733929702242       -1.80302174119370        2.91428240037741
C          106.89865868652258       -2.62775600129106        4.14766752001736
C          106.31176072025217       -3.89557348295178        4.13999616979933
C          106.29643700298672       -4.67027780383937        5.28819314872437
C          106.86845584287470       -4.16034878810314        6.44239568747649
S          106.86379680203672       -5.13945693510107        7.89677567230542
O          106.74022581157188       -6.53000663302222        7.57305181878749
O          105.45092365108877       -4.63336473728722        8.51683389702154
O          107.91231783634174       -4.73466201490703        8.78637564504475
C          107.45858650612460       -2.90752992714801        6.48103171475009
C          107.47274789541054       -2.14347595950401        5.32581182746187
C          105.69251113586458       -1.41688952361375        2.36633834246556
C          104.40457628365988       -1.73341718246869        2.95879905244511
C          103.46920365478744       -1.20045089172309        2.14630220354196
C          104.18680714555478       -0.55036800210579        1.06724978558788
N          105.51893649485537       -0.68787679314038        1.23071458072967
H          102.45991987844660        1.50719387042618       -2.26678266600903
H          104.35205395628215        2.58577150032895       -3.81605991544246
H          106.22638207541063        0.60844057237734       -0.59003290581118
H          108.08028202682546        1.46525292822816       -5.21225352048891
H          108.11523773165189        2.87214490395477       -7.26009337301888
H          105.48692722281662        5.50892890313786       -9.19016580572952
H          106.04027003358838        5.97945143356096       -5.16542450832268
H          106.01244217599823        4.58065503831799       -3.11277588860613
H          109.67884531373174        2.84276443678877       -3.58298927410659
H          111.54120640945204        1.73495845271421       -1.99037892967194
H          111.48113720233133       -1.47723063784052        2.19803411609494
H          109.58919685681701       -2.53997021622429        3.75795219656692
H          107.71308265289761       -0.27805708161575        0.72565211523295
H          105.88060466056693       -4.28052548319701        3.22332271983860
H          105.85440667765471       -5.65869559874426        5.29054378817975
H          105.28177347128172       -5.06805829408679        9.36159064096400
H          107.90096283009188       -2.54204096947485        7.39923123373741
H          107.91938954982498       -1.15606183098267        5.33784413801779
H          104.25790681727831       -2.27727531893927        3.87775621136162
H          102.39620083127421       -1.22258110629517        2.24903538984409
C          119.57874925693571        0.11926382872126        0.08253718551143
C          120.20512438449829        0.79579123034869       -0.98232711958890
C          119.55675248485944        1.45149065527858       -2.06054441131139
C          120.52186323548869        1.99219447002490       -2.86541181218429
C          121.78841401709795        1.68853920195935       -2.29533594011396
N          121.54628672088654        0.95619553409797       -1.16445284165486
C          123.04871899704192        2.04286411377813       -2.79225980902215
C          123.05976680576646        2.86955404263898       -4.02465173866857
C          123.64372678107905        2.37936880500595       -5.19527159080902
C          123.65641640469961        3.14580129901376       -6.34902626349125
C          123.08238556329066        4.40619820404074       -6.31644875377883
S          123.10778879424488        5.38801817358467       -7.76910682388335
O          123.01158149143066        6.78216276831986       -7.44887545279954
O          121.68247441396360        4.92420632428083       -8.39430042797861
O          124.15373957048604        4.95733885933400       -8.64807020795096
C          122.50089013000549        4.92187113119611       -5.16955372328491
C          122.48928415173791        4.14488397359735       -4.02289059765108
C          124.27712329504929        1.68943122669234       -2.23163828876210
C          125.56007322047658        2.13191570064525       -2.74911219249041
C          126.50180120996258        1.58878626610282       -1.95065735083316
N          124.46024135981988        0.91109580989561       -1.12978404020195
C          125.79284230473822        0.82429085146882       -0.94342409950667
C          126.45299613865686        0.09697999334962        0.06776024603931
C          125.82600125743194       -0.63333532961258        1.09627681774875
C          126.47370019685363       -1.39274455989076        2.10449509716294
C          125.50858459439279       -1.92883930282067        2.91244983074153
C          124.24275969565117       -1.50353498681183        2.42445840416018
N          124.48511509881497       -0.73210073524412        1.31994007990512
C          122.98266983702823       -1.81938090253892        2.94769278335497
C          122.97171043502250       -2.64582440622721        4.18011967403525
C          122.37597574560898       -3.90953430546741        4.17554096050906
C          122.36635350369650       -4.68638748732350        5.32228462869755
C          122.95293765303704       -4.18263990663565        6.47188839962180
S          122.95371142482348       -5.16468326402906        7.92438153557253
O          122.82577096247715       -6.55455969030335        7.59905216045549
O          121.54382102051161       -4.65824805139654        8.55051574038334
O          124.00764355511275       -4.76330148261181        8.80885877159172
C          123.55209867975937       -2.93408516118554        6.50730968519794
C          123.56051915035330       -2.16779579568499        5.35343678654136
C          121.75449754325869       -1.42425359541795        2.41525123698950
C          120.47210447279178       -1.72746749170728        3.02604831854589
C          119.53048939928631       -1.18736249935164        2.22539191213186
C          120.23913715626934       -0.54775823143083        1.13434747904006
N          121.57127935123900       -0.69632579617313        1.27941162645912
H          118.48851104465966        1.49493115283735       -2.19816177836890
H          120.37130529900712        2.54455050943241       -3.77847601905592
H          122.26640117396346        0.58316316013755       -0.55492713614890
H          124.07856992293009        1.38676212614164       -5.20158046129481
H          124.10700980218706        2.77623048665260       -7.26155069486814
H          121.43880525150388        5.49826358561410       -9.13076683300867
H          122.07271783907565        5.91638203234899       -5.17598407576759
H          122.05119782461415        4.53486725829009       -3.11151461465286
H          125.69919160720009        2.78103508183892       -3.59824795988306
H          127.57379776038162        1.68662775384932       -2.01076015665773
H          127.54145875047139       -1.51296242887151        2.19040436639248
H          125.65874534736406       -2.57040894569707        3.76523185919267
H          123.76545044773573       -0.30091914110828        0.74949783414418
H          121.93298690173920       -4.28929902515463        3.26234528912487
H          121.91734719140743       -5.67164422048121        5.32713118111552
H          121.36191120823568       -5.11630843802241        9.38018760739811
H          124.00558607325009       -2.57340284864411        7.42197820039766
H          124.01387468987117       -1.18342541652876        5.36307419032605
H          120.33324075119363       -2.26753016983439        3.94844358882299
H          118.45887284003601       -1.19897471019807        2.34319123865701
C          135.62706698659358        0.10007067231693        0.06729773958041
C          136.25380621141252        0.77786422907253       -0.99666687615288
C          135.60586039810320        1.43284506484591       -2.07557066638616
C          136.57112949623220        1.97711312323035       -2.87786466042900
C          137.83735512080429        1.67628891214048       -2.30559523802185
N          137.59489881971118        0.94197345627175       -1.17600717661820
C          139.09761671515190        2.03439619841747       -2.79995629500231
C          139.10860966057106        2.86380648427081       -4.03054343333216
C          139.69542480185260        2.37759364147082       -5.20140981357992
C          139.70815085069077        3.14667294313539       -6.35339061721545
C          139.13122363129725        4.40570380567428       -6.31884358480655
S          139.15601899211001        5.39044609340513       -7.76955508922546
O          139.05406683211183        6.78358850321713       -7.44681103935225
O          137.73380582796227        4.92230420910616       -8.39843070142169
O          140.20527464238694        4.96533076262935       -8.64730568437609
C          138.54697790127221        4.91751621308426       -5.17163140181795
C          138.53542011314750        4.13791125263790       -4.02672865993052
C          140.32607397375662        1.68212879249098       -2.23869283706904
C          141.60891183134228        2.12656197687320       -2.75478288608930
C          142.55069302430215        1.58316940739162       -1.95657276036679
N          140.50928735630487        0.90262747089140       -1.13765475966155
C          141.84184576874085        0.81695236834761       -0.95059578363129
C          142.50218028336516        0.09061574026778        0.06114531320800
C          141.87529177043035       -0.63928031425951        1.09003603092616
C          142.52299443344836       -1.39611034464840        2.10016830792830
C          141.55780542040276       -1.93149385766163        2.90853167805464
C          140.29192135395115       -1.50829952750884        2.41885790250302
N          140.53433273285975       -0.73881347166730        1.31301836526898
C          139.03164334801551       -1.82473742370254        2.94138206802763
C          139.02061870808683       -2.64991353209288        4.17466877031804
C          138.42652434189529       -3.91442220315271        4.17003845823964
C          138.41739058718125       -4.69119133979183        5.31680841174483
C          139.00278133939355       -4.18655525940458        6.46663838525714
S          139.00526801164929       -5.16913356966858        7.91877380569490
O          138.87931456892235       -6.55881684475084        7.59215332229620
O          137.59556402069228       -4.66420462617375        8.54638422116114
O          140.05885046670676       -4.76706487116476        8.80349912533772
C          139.60008173531142       -2.93711048079912        6.50221227966150
C          139.60805234612772       -2.17088174827133        5.34825812276641
C          137.80342519894742       -1.43288636120256        2.40658707892719
C          136.52090150682039       -1.73762533055307        3.01640219011032
C          135.57905975424163       -1.20207189558217        2.21295949837947
C          136.28762031201876       -0.56343159168713        1.12130763759329
N          137.61995344844348       -0.70811335137236        1.26873718171865
H          134.53779036604413        1.47347754153239       -2.21533588559261
H          136.42092342011696        2.53009711741688       -3.79060470798472
H          138.31483510702003        0.57036385366097       -0.56539617935446
H          140.13244072910004        1.38595438388655       -5.20933775930330
H          140.16094681916266        2.78018623921864       -7.26607017124610
H          137.49028849640371        5.49540586287167       -9.13568981412940
H          138.11661899813546        5.91109644169478       -5.17643294798971
H          138.09516860536243        4.52493443176023       -3.11513057602451
H          141.74800376417258        2.77693984030425       -3.60295808637654
H          143.62264840541889        1.68183883907496       -2.01607044272874
H          143.59079655575417       -1.51530409114885        2.18697029190143
H          141.70807723637725       -2.57113966559621        3.76274083339383
H          139.81469231803985       -0.30927541839174        0.74131095975019
H          137.98463119232983       -4.29486642686298        3.25659602750086
H          137.96978140177944       -5.67707851725690        5.32148458581077
H          137.42467067800138       -5.10790259956673        9.38614666499732
H          140.05270176735360       -2.57575011485441        7.41705336403181
H          140.06015191129350       -1.18593232257530        5.35813005358967
H          136.38211046357918       -2.27544990516534        3.94011416296383
H          134.50730677980357       -1.21616059691227        2.32926272347953
C          151.67615012381088        0.10258074777924        0.06973108331931
C          152.30395528534243        0.77867455852661       -0.99466446900539
C          151.65710101650646        1.42983425246562       -2.07656667037007
C          152.62310675115415        1.97287720804429       -2.87878792610509
C          153.88869035269698        1.67534734270847       -2.30337031763693
N          153.64514649487765        0.94379292051450       -1.17219560787376
C          155.14932864183535        2.03435945380064       -2.79599371643294
C          155.16169691069186        2.86140519535129       -4.02811778830501
C          155.75230915326517        2.37464008066599       -5.19683143868380
C          155.76644756971137        3.14219371909255       -6.34983149064070
C          155.18713129634057        4.40021867216974       -6.31845071100229
S          155.21426266676735        5.38341233556822       -7.77014732318104
O          155.10539930061708        6.77645046329061       -7.44920457501540
O          153.79680873065172        4.90890282476850       -8.40488489049837
O          156.26903908838221        4.96167487905083       -8.64293046850448
C          154.59908124976872        4.91252357801708       -5.17340903606983
C          154.58612014303424        4.13444883781117       -4.02750696896865
C          156.37705985529053        1.68605873333929       -2.23061627891647
C          157.66037878873425        2.13244032014992       -2.74374839257319
C          158.60095825487386        1.59360905886936       -1.94102024309655
N          156.55866031692020        0.90960924373289       -1.12722581946392
C          157.89083393498265        0.82780598069747       -0.93562529755431
C          158.54973562289570        0.10405560505696        0.07883832049755
C          157.92197180197550       -0.62755945338637        1.10586825306793
C          158.56908906542321       -1.38408247714953        2.11660613703529
C          157.60325479370817       -1.92350796510377        2.92148482729594
C          156.33754773157023       -1.50277305941974        2.42926647451686
N          156.58071923157019       -0.73083247617344        1.32534907253328
C          155.07666090498427       -1.82245394508289        2.94836767593994
C          155.06405518682914       -2.65112459848832        4.17923687743278
C          154.47069188281455       -3.91596581511824        4.16955054159554
C          154.46078113481681       -4.69675601861725        5.31355766584853
C          155.04461138147013       -4.19580026986320        6.46579780855522
S          155.04664003464515       -5.18388646762953        7.91416187835677
O          154.92024912027955       -6.57210451114425        7.58169183922570
O          153.63736041385644       -4.68045251355608        8.54406584308486
O          156.10013795406002       -4.78595057243570        8.80094491353968
C          155.64075849556804       -2.94595687394309        6.50652295367649
C          155.64950701236859       -2.17566941022003        5.35527307987726
C          153.84920284363244       -1.43070923735207        2.41185423031967
C          152.56579119107704       -1.73650237280185        3.01922816938692
C          151.62515578151587       -1.19996447285887        2.21503324026876
C          152.33533372925689       -0.56026776198605        1.12502201296334
N          153.66742730094009       -0.70463597048958        1.27454461584498
H          150.58922874198831        1.46864679723909       -2.21833705162383
H          152.47392153645734        2.52292704495085       -3.79346909816018
H          154.36454761613584        0.57479465681057       -0.55936946431056
H          156.19127856073669        1.38384473844540       -5.20231986649379
H          156.22222965384103        2.77534026701870       -7.26087730500061
H          153.55629542359912        5.47812077067241       -9.14613165801368
H          154.16696302099004        5.90531895543482       -5.18059945487835
H          154.14297961628063        4.52185735584108       -3.11747974110988
H          157.80055267328618        2.78088002544235       -3.59323088120312
H          159.67283319467199        1.69507024422995       -1.99720316240274
H          159.63698751490807       -1.50043851476672        2.20605300981019
H          157.75302785488213       -2.56433564567996        3.77488890603390
H          155.86130195497597       -0.30251600222739        0.75244540795437
H          154.03013238867717       -4.29350806383220        3.25425803100223
H          154.01386605478373       -5.68296712866965        5.31431091143951
H          153.47471732609105       -5.11445466159756        9.39049868784867
H          156.09205148157369       -2.58743571053071        7.42313826988056
H          156.10073876234483       -1.19037070099860        5.36919344010367
H          152.42564549508899       -2.27540860414256        3.94210936508425
H          150.55322833499091       -1.21436015997020        2.32967438876388
C          167.72356132896297        0.12154056320923        0.09990434992048
C          168.34908693867294        0.80101359488199       -0.96346320021987
C          167.69948964750910        1.45907852254904       -2.03980417440835
C          168.66332979509625        2.00647114225517       -2.84139474411740
C          169.93056262597176        1.70468653320152       -2.27140824370798
N          169.68978060428663        0.96600104748544       -1.14419480793070
C          171.18998624961972        2.06650410916626       -2.76402946889001
C          171.20163741560793        2.90231245825227       -3.99003132171641
C          171.79321159046782        2.42374194327021       -5.16173905785353
C          171.80609436294563        3.19821454184086       -6.31005570229823
C          171.22466084893875        4.45506179115216       -6.27103373425938
S          171.24780984995286        5.44582099953514       -7.71760451574694
O          171.13203336797829        6.83661555061482       -7.38966703618341
O          169.83275688858376        4.96680946056416       -8.35473757120735
O          172.30431845695935        5.03376136071106       -8.59292753391177
C          170.63607846788247        4.95955771879290       -5.12281417642813
C          170.62434543464062        4.17454009139795       -3.98160842995105
C          172.41836074322850        1.70992580887070       -2.20404940630778
C          173.70183743077558        2.15882914058726       -2.71504717421323
C          174.64286566927555        1.60393299362362       -1.92408731273063
N          172.59976950411792        0.91836647329747       -1.11244046882682
C          173.93304268544941        0.82638104458925       -0.92736127310170
C          174.59119799632472        0.07983314254735        0.06922716691190
C          173.96608212756112       -0.65976054821209        1.09074616738081
C          174.61481433727781       -1.43244851773165        2.08862427335619
C          173.65132735641475       -1.96719597144801        2.89903141322463
C          172.38528091200274       -1.52833205955046        2.42307547215899
N          172.62567731819706       -0.75075238835007        1.32292317563949
C          171.12611810998146       -1.83807732276917        2.95215012214615
C          171.11558885393038       -2.67292183209369        4.17871261723176
C          170.50633039777972       -3.93021657285394        4.16875748117397
C          170.49706810345887       -4.71632323189406        5.30912563191360
C          171.09782992621970       -4.22833271385968        6.45820409972370
S          171.09866590003901       -5.22216377635200        7.90259521427317
O          170.94226112099696       -6.60613685179809        7.56552594147859
O          169.70762010231945       -4.69341286370999        8.55219200487492
O          172.16941157962532       -4.84825500935416        8.77934524479978
C          171.71064848518617       -2.98653471099737        6.49900231725174
C          171.71854056228221       -2.21093621987336        5.35134009533193
C          169.89843513458823       -1.43182710725093        2.42675468293278
C          168.61629020987718       -1.72896746819920        3.04124030936517
C          167.67509549494360       -1.18391345263031        2.24348738360113
C          168.38382457517449       -0.54673761272482        1.15092297761745
N          169.71564222042056       -0.70090566618257        1.29289316597856
H          166.63122856417976        1.49942479466693       -2.17820088608852
H          168.51187932653292        2.56207808677988       -3.75234281439033
H          170.41090903948526        0.59299724126013       -0.53585156192939
H          172.23357639101098        1.43361569494045       -5.17328276249035
H          172.26234803350246        2.83757194561605       -7.22334508874241
H          169.59382419832727        5.53257396980145       -9.09910751836671
H          170.20246759815637        5.95172399420004       -5.12400359669010
H          170.18073746182105        4.55587755888854       -3.06924822355392
H          173.84159671511529        2.81962605382844       -3.55501907537879
H          175.71495320625087        1.70156437661110       -1.98263376884196
H          175.68222870004777       -1.56105377395281        2.16647944416425
H          173.80236920984927       -2.61616572648352        3.74605210260891
H          171.90566535124577       -0.30905749953838        0.76103940707810
H          170.05249357810260       -4.29784573349228        3.25591938114699
H          170.03748584696652       -5.69669731108413        5.30945751419616
H          169.56286026647086       -5.10311452840590        9.41381157787145
H          172.17511348260572       -2.63824577890943        7.41298535210718
H          172.18257999214080       -1.23160648755781        5.36571597438468
H          168.47753102216669       -2.26864885813178        3.96388601184254
H          166.60376244596526       -1.19031201196647        2.36431790590348
