124
 energy: -222.932367991811 gnorm: 0.000919083871 xtb: 6.5.1 (b24c23e)
Fe          14.34533942278824        0.01745274632476       -0.02524730823761
C           10.95966743908235        0.03667857760782        0.14633002780351
C           11.61712548879008        1.24805106307912        0.20752480231024
C           10.94858706930923        2.51147748853299        0.28985352978826
C           11.91204667028751        3.45116727243148        0.43644331250896
C           13.16792365715642        2.75795292401393        0.45514749623188
N           12.97543559522948        1.41452160730624        0.27940774387717
C           14.39511963674230        3.37454341521348        0.67447805170343
C           14.41711212220095        4.82782342376273        0.95931833410469
C           13.76786410010662        5.33847214781609        2.08565728452854
C           13.79300773145529        6.69433422341756        2.35867910518272
C           14.46605475655344        7.56964435055912        1.50120431085045
C           14.49329367338970        8.96560093009502        1.77919183017192
N           14.51449173341786       10.09387765058769        2.00424440605115
C           15.11303859752101        7.06397970503171        0.36977975575629
C           15.08935612293218        5.70621552993327        0.10640226722735
C           15.60092636704551        2.68758534539851        0.63664052457555
C           16.87303754325954        3.28975622152718        0.90508756568601
C           17.81095210117727        2.33931910538606        0.67720870085828
N           15.76139494246270        1.36465627147202        0.29956811757521
C           17.10951036886615        1.15808826621077        0.28290529565188
C           17.75468575087282       -0.01793035881043       -0.11771964019081
C           17.06182311734325       -1.18201121395495       -0.47065061024060
C           17.71013236155369       -2.37072196579936       -0.92771095812518
C           16.74253660803859       -3.30714939850053       -1.07781804569221
C           15.50655946129372       -2.68821451564445       -0.70105104572924
N           15.71569288013045       -1.37241095354883       -0.36346677183792
C           14.29022039398435       -3.35495158068555       -0.64427709927041
C           14.26304023212598       -4.80637728266206       -0.93852451218495
C           13.51946862595557       -5.29622452180424       -2.01473105942010
C           13.49536510117508       -6.65041729516600       -2.29570511460454
C           14.21333364231413       -7.54485682331642       -1.49633671360511
C           14.19006615072621       -8.93909217450427       -1.78309015219467
N           14.17591219449814      -10.06601175779422       -2.01476780376042
C           14.95528244820720       -7.05994046325546       -0.41519450830407
C           14.98043399415494       -5.70364131162684       -0.14411839283534
C           13.09443772798702       -2.71879707261012       -0.32844940158551
C           11.83173313158922       -3.39130428011698       -0.21980822204972
C           10.89763008351182       -2.43655132626905       -0.00004398113915
C           11.59147002414361       -1.18464982160445        0.03675128789072
N           12.93953323728629       -1.37461861547158       -0.12279078119273
H            9.87627633697622        0.04525729456899        0.18538590541457
H            9.87935931865128        2.64183215438098        0.23866284618950
H           11.79616184672306        4.51957181572403        0.52007715634408
H           13.25538062087826        4.66128800802465        2.75947286633702
H           13.29312095612696        7.08267055946582        3.23826853607799
H           15.63238458991475        7.73994938651712       -0.29928551515982
H           15.58283913980625        5.31873013245408       -0.77769480607741
H           17.01951269052553        4.30703091873408        1.22935303087661
H           18.88268653669814        2.41622566342266        0.76387629789772
H           18.76925834616222       -2.46090717570807       -1.10752327371279
H           16.84542456857617       -4.32413645848633       -1.41943768512319
H           12.97083998805505       -4.60426652397114       -2.64364339791706
H           12.92160499499320       -7.02263974559108       -3.13634083345160
H           15.50948163459461       -7.75098115126054        0.20908238852833
H           15.54793875264683       -5.33201711426668        0.70153750781945
H           11.69167682322303       -4.45709943901253       -0.29916872068314
H            9.83263806329907       -2.54935451310068        0.12616360476327
Fe          32.89771795371431       -0.02193973020213       -0.02394797658737
C           36.28330167639441       -0.03160586723967        0.14835184393386
C           35.62593392314027       -1.23791893143196        0.27532930742807
C           36.29451201626046       -2.49504385275420        0.42585423248324
C           35.33108815258466       -3.42550255766622        0.62292571694107
C           34.07519565089106       -2.73233938370852        0.60420595916747
N           34.26762771429253       -1.40035263905229        0.35609378212082
C           32.84804804542846       -3.33610809105237        0.85686539704681
C           32.82543686503134       -4.77196352299620        1.21946654339659
C           33.47414833785963       -5.22182918210773        2.37170984858190
C           33.44697107907410       -6.56088294348820        2.71779989271191
C           32.77242900283445       -7.48033504644777        1.90909553937275
C           32.74234948028088       -8.85900525424059        2.26260917927369
N           32.71853226898879       -9.97326273008055        2.54867180538648
C           32.12646177553182       -7.03580197262767        0.75169946087943
C           32.15216324331977       -5.69435067963999        0.41516275882305
C           31.64229926721768       -2.65200245714779        0.78260660938463
C           30.37027661096058       -3.23852208255006        1.08412845427278
C           29.43232776647902       -2.30178350000195        0.80537422939609
N           31.48177778835221       -1.34936951919957        0.37410886126988
C           30.13367745950383       -1.14387698535046        0.34696287915080
C           29.48839630058388        0.00847353948737       -0.11715243607531
C           30.18121423084987        1.15132808458478       -0.53368860698691
C           29.53288344358148        2.31315928482659       -1.05520092930504
C           30.50040898437528        3.24011258280243       -1.25593917573058
C           31.73637927901590        2.64281239844783       -0.84563955244862
N           31.52735262829112        1.34733926993776       -0.43707305325018
C           32.95257800190165        3.31200788479766       -0.82493206658787
C           32.97797892215615        4.74558339289846       -1.19660967259199
C           33.71972189983302        5.17857547768007       -2.29811438652695
C           33.73954405978802        6.51569644272944       -2.65203087640781
C           33.01911658437285        7.44997253289942       -1.90188131435764
C           33.03634686050596        8.82684085476998       -2.26320133658482
N           33.05236324282733        9.93885671141866       -2.55865086264933
C           32.27937752276809        7.02214774216070       -0.79549041898754
C           32.25851704351224        5.68253417422371       -0.45137446399933
C           34.14851046787992        2.69407805044504       -0.47549998808468
C           35.41125903861732        3.37142914189562       -0.40402979724072
C           36.34538594591996        2.43000266980504       -0.13282282925090
C           35.65151672396771        1.18197389801667       -0.02764592237665
N           34.30345946985982        1.36301400410537       -0.19711830423359
H           37.36669845236194       -0.03804366803781        0.18776500935369
H           37.36374401674053       -2.62796618044239        0.38182926888668
H           35.44697535832231       -4.48782954469104        0.76417585392395
H           33.98763700116039       -4.50991175350702        3.00791207382203
H           33.94625825740686       -6.90171109823896        3.61720248551852
H           31.60615884567198       -7.74625946134883        0.12016590500364
H           31.65925198584506       -5.35459977062847       -0.48866390837395
H           30.22388460387942       -4.23659964260981        1.46341898899826
H           28.36063051489059       -2.37367629042526        0.89666837278912
H           28.47380853962835        2.39326760411528       -1.23998846477529
H           30.39741655632815        4.23686386492100       -1.65268642208411
H           34.26982754081337        4.45514010639841       -2.88918753877103
H           34.31147803071266        6.84347423086433       -3.51218394941817
H           31.72318515478004        7.74428976319630       -0.20936110613440
H           31.69232804855442        5.35557300210129        0.41337941659125
H           35.55128217565413        4.43130368227358       -0.54155930339235
H           37.41042857321923        2.54942775494010       -0.01327012742958
C           19.15547783514146       -0.02824828113227       -0.16311462220603
C           20.38127408321821       -0.02544026359118       -0.18837374770825
C           21.72146464001508       -0.02029804101908       -0.20859680992817
C           22.95369879922684       -0.01099467009810       -0.21666862309914
C           24.28921655130907       -0.00126000067036       -0.21576294895615
C           25.52154831510608        0.00663734861528       -0.20749518231881
C           26.86178017869682        0.00984615903735       -0.18749397458508
C           28.08759269812287        0.01654959671254       -0.16239951261356
