177
 energy: -320.415558403635 gnorm: 0.000577944441 xtb: 6.5.1 (b24c23e)
Ni          34.91564979616870       -0.04816096473038       -0.11870938356588
C           31.52502843940805        0.17751264225336       -0.15405488654367
C           32.22231550958655        1.02734163724029        0.67886898127619
C           31.59823069905597        1.99915591827934        1.52391648055061
C           32.58392155799658        2.55755206743854        2.26622609467879
C           33.80559585155817        1.92713091469817        1.86897109845592
N           33.58228031972811        1.00987320778933        0.87991124707675
C           35.03772790382229        2.18580648350825        2.47140949104817
C           35.08779082654729        3.10945160910728        3.53825978337315
C           35.12234306081837        3.91012660317067        4.44914221442992
C           35.16625104644176        4.84969757397674        5.50485385700449
C           36.36343395657587        5.14059354618389        6.16890751738513
C           36.35247056611538        6.07050190890947        7.19337310950615
N           35.25281147418885        6.70938705786802        7.58420218438045
C           34.11064832811115        6.43889495015195        6.95730059071727
C           34.01402941021757        5.52648238083479        5.92189807891177
C           36.22371079481776        1.58253840385127        2.05030457100048
C           37.49427212641972        1.84305575836251        2.65012629227645
C           38.41705318603741        1.18235354216760        1.90887897484546
N           36.35559651242514        0.74623205179778        0.97235972885720
C           37.70377127404736        0.51980869780611        0.86322727944426
C           38.32694538449645       -0.18185306144944       -0.16767970631919
C           37.61923053719843       -0.85427236203573       -1.16329449486317
C           38.24728869450210       -1.60944845578216       -2.20105898049432
C           37.25644539794465       -2.24658728658787       -2.87155790873450
C           36.02882745092793       -1.86722305325294       -2.24664366346404
N           36.25555078640967       -0.99125277707955       -1.21744512131576
C           34.78591652224200       -2.38123145695667       -2.62005526268024
C           34.73846721299387       -3.37201029993039       -3.62490719033670
C           34.70320905655350       -4.23464383639686       -4.47734907005019
C           34.66315310103650       -5.24140446941948       -5.46929767299452
C           35.82928632648110       -5.67198504238353       -6.11276255154933
C           35.73704546345527       -6.66109335735373       -7.07568102075199
N           34.58652534728144       -7.23091706948180       -7.42520470456988
C           33.47365618677144       -6.82771804938108       -6.81744358462874
C           33.45726508467893       -5.84595328015408       -5.84268483464323
C           33.58921776004722       -1.94557516424314       -2.04985041614825
C           32.30206443784837       -2.42050639992605       -2.45671272789527
C           31.38533552063819       -1.68835182314097       -1.77989370423687
C           32.11733846171677       -0.77723170179939       -0.95410496156124
N           33.47077259470503       -0.95831226862289       -1.11121301080660
H           30.44408689757685        0.25518463465924       -0.17016175204169
H           30.53987373927666        2.20523395076944        1.53942076225436
H           32.50915324792325        3.32297240884194        3.02194005651780
H           37.28247915068878        4.64371621561017        5.88246171268278
H           37.26704682827369        6.31540053694271        7.72579803116255
H           33.23292410329524        6.97851259846230        7.30121234287788
H           33.06336625985835        5.33660956969451        5.43838355266039
H           37.64490811437089        2.46231910593115        3.51969095084552
H           39.48639935945352        1.14273603936518        2.04030158117016
H           39.31098049269070       -1.64850829501102       -2.37223791028673
H           37.33370747404861       -2.91678808769686       -3.71246328391496
H           36.78732585997093       -5.23497159071698       -5.85824273043962
H           36.62560538824826       -7.01392313775869       -7.59128313730295
H           32.55277172479215       -7.31404830442528       -7.12622889095487
H           32.52766469925685       -5.54795321262708       -5.37296118621093
H           32.14096451264997       -3.20431492188884       -3.17938603164835
H           30.30927353602873       -1.74340594145633       -1.82353944537370
Ni          56.62942916853760       -0.23860706526442       -0.12459666118156
C           60.02857947210403       -0.16104920669878       -0.10029868883790
C           59.41124786106170       -1.35410253557718       -0.41259377080162
C           60.12097994822458       -2.55474562995968       -0.73298021039440
C           59.18957508504509       -3.52563635435296       -0.88867338565569
C           57.91601788907452       -2.91369805570868       -0.66241252644612
N           58.05540971286158       -1.58025923550331       -0.39436862808483
C           56.71274523990218       -3.62036048940628       -0.65656755430827
C           56.74362971170175       -5.01224445478201       -0.89239322476962
C           56.76869540825096       -6.20574806447868       -1.10905414583110
C           56.79472117297642       -7.59530654446793       -1.36911270287966
C           55.61732351061281       -8.35209354830895       -1.38544579132371
C           55.69564895630603       -9.70753326290714       -1.65142850826291
N           56.84301533158273      -10.33587329099481       -1.89482497939674
C           57.96675280469293       -9.62354468150948       -1.88042147755307
C           57.99730681682237       -8.26402176153692       -1.62541535897288
C           55.47868023522195       -3.00641345100500       -0.43825177875319
C           54.24095165254435       -3.71947873892132       -0.41522772029001
C           53.26096777792328       -2.79237277331737       -0.28290563838864
N           55.26848529159086       -1.65925138128051       -0.29431332664308
C           53.90635130464977       -1.51923243220008       -0.22587731201865
C           53.21411278447054       -0.30777632867757       -0.20297466468206
C           53.85440405228712        0.92984582129671       -0.13768960951221
C           53.15502367202580        2.17470885532485       -0.09354963881820
C           54.08783127492151        3.13729241227393        0.10860689135263
C           55.35151155239113        2.47457517590349        0.17989483301799
N           55.20467966832427        1.12327253766273        0.00206530526194
C           56.54966447872850        3.13482193707151        0.45574474758724
C           56.51490039134504        4.52181172237858        0.71811580467939
C           56.48752396030262        5.71212585575890        0.95130169942080
C           56.45883769187930        7.09847001526287        1.22768405858603
C           55.25851422119344        7.81824196244137        1.21160157388556
C           55.28599884634780        9.17313517405091        1.49039505168702
N           56.40470127001690        9.83453554161341        1.77596688736564
C           57.54988648454310        9.15726817098557        1.79353132361442
C           57.63096275726684        7.80167771561984        1.52914686970147
C           57.78278805663012        2.48173062118735        0.47673949560456
C           59.02361042839861        3.14772541802813        0.73101147911043
C           60.00156921246149        2.22588717553506        0.56327120496622
C           59.35258030527311        0.99926274407207        0.21398313364245
N           57.98781287050369        1.16170726194848        0.18511080587219
H           61.11211458254853       -0.13524213978850       -0.09573006593509
H           61.19376601480172       -2.62627174288099       -0.81574335856507
H           59.33276720500374       -4.56737048195235       -1.12712335668568
H           54.66136477862472       -7.88010527644800       -1.19318669820792
H           54.79797112805307      -10.31880037277832       -1.67120443015484
H           58.88473529642085      -10.16768154147078       -2.08315744911188
H           58.93537330546512       -7.72215530328937       -1.62426652146010
H           54.14965369381652       -4.79041518464909       -0.49895953545694
H           52.19429673296327       -2.94157290732826       -0.23678544681751
H           52.08677969084936        2.28082376995018       -0.19321346706485
H           53.94850828258247        4.20176254949161        0.20741774849527
H           54.32445973762464        7.31888260238040        0.98410923287124
H           54.36963764241483        9.75633099202444        1.48491751826832
H           58.44345768972123        9.72765136434099        2.03034270039972
H           58.58498373981328        7.28902000142582        1.55448932464925
H           59.11514693645912        4.18980387734965        0.99224721951528
H           61.06893423262088        2.34628650416089        0.65854613731114
C           39.74013688625553       -0.23456441863580       -0.19709136437653
C           40.95258059110928       -0.29378095046008       -0.23193863034026
C           50.58895890015248       -0.37335412349688       -0.28024165610911
C           51.80288377856556       -0.33900179551694       -0.24262944436100
Ni          45.76919558495509       -0.52244839806642       -0.39853294218580
C           42.36332110569034       -0.37300133146181       -0.28618100834641
C           43.01618567171874        0.13269125277721       -1.41073888747254
C           42.33902769104969        0.68531350803638       -2.54057895004957
C           43.29735110255950        1.15568195189285       -3.37675177701120
C           44.55316286449657        0.90313964041032       -2.74379537327793
N           44.37485822729965        0.24117666049569       -1.55690290503029
C           45.76926347225037        1.39927913440713       -3.21606241304956
C           45.77707654545127        2.15502184608038       -4.40847794422218
C           45.78851605785751        2.79894071049719       -5.43667445332128
C           45.80283446721962        3.54846926185159       -6.63545490732113
C           46.98723774689509        4.11186780858735       -7.12428106162023
C           46.94826669560120        4.83561480128986       -8.30274395094359
N           45.83295478251008        5.02562081384655       -9.00303182902095
C           44.70288655049675        4.49321483435512       -8.54491371132474
C           44.63404130679013        3.75350905969865       -7.37772789125770
C           46.97501826758158        1.20803060576281       -2.53857365001217
C           48.21182330832650        1.80085307260286       -2.93726062497729
C           49.16252778274516        1.31898363128847       -2.09876501421747
N           47.15523707132729        0.38885750224650       -1.45497601665672
C           48.50302198527014        0.42050844985124       -1.20496062470932
C           49.17904823043880       -0.42637511875877       -0.32542571648151
C           48.51995791144589       -1.36032448813033        0.47638394531577
C           49.19192110396620       -2.30432430357664        1.31142796526227
C           48.23121853008482       -2.96622966049411        2.00270203757187
C           46.97915168298920       -2.40942952223727        1.59862424817174
N           47.16184686573927       -1.45109725111734        0.63534985754483
C           45.76485812345248       -2.71286712288080        2.21594320588302
C           45.75427658527492       -3.65652349937187        3.26593125213977
C           45.74050068460210       -4.47435051211655        4.16200146804840
C           45.72222000064826       -5.42770538441050        5.20596637571027
C           44.53940183774250       -5.72975209422462        5.89084518129425
C           44.57347715701777       -6.67150983492314        6.90369589831199
N           45.68272734034170       -7.31192999525132        7.26431852229590
C           46.81117479767259       -7.03026790390847        6.61820711512358
C           46.88452490507031       -6.10524567810456        5.59184882355316
C           44.56387494351444       -2.09561575901846        1.86036546014669
C           43.33114747700607       -2.30052939376075        2.55246132647418
C           42.38356230510094       -1.60803351607626        1.87324729990938
C           43.04035008321098       -1.00076991641309        0.75900904818466
N           44.38488408627175       -1.27120972559490        0.78115979727798
H           41.26802716021265        0.70556019051810       -2.66267953097590
H           43.17968152493521        1.64880090513415       -4.32820144811034
H           47.91792342088454        3.98134769593887       -6.58543138288412
H           47.85207047580766        5.28399062650428       -8.70514552299677
H           43.81175824017932        4.66765249260762       -9.14098043535991
H           43.69221754399184        3.33758303808666       -7.04081163100422
H           48.32297573707992        2.49338647917244       -3.75603423011537
H           50.22035179834955        1.52692672073463       -2.08802153754473
H           50.26167025601510       -2.43048476444340        1.35600273759120
H           48.34562743890682       -3.74714958504732        2.73709417202502
H           43.61371330363836       -5.23163395361145        5.62902625817220
H           43.67076966553287       -6.92540240485499        7.45185583051981
H           47.69734376381048       -7.57099741337286        6.93784279074220
H           47.82499617267113       -5.90657868708255        5.09226671806356
H           43.22063805806298       -2.90045461429539        3.44140325688080
H           41.32919297045395       -1.52415646093396        2.08200612341573
