134
 energy: -272.947928187106 gnorm: 0.000584698519 xtb: 6.5.1 (b24c23e)
Ni          15.73993512986189        0.01839327759060        0.04722321852138
C           12.34999925824879        0.11772287815110        0.08443899512315
C           12.99797340546058       -0.32602316271248        1.21830113517541
C           12.31875760710746       -0.77417632634226        2.39575630355111
C           13.27242658342192       -1.02160424796595        3.32362704901499
C           14.53354807932964       -0.71297682847943        2.71463611991636
N           14.35710196918418       -0.32591196438801        1.41025383451017
C           15.75043437917154       -0.75385812422093        3.38296670945901
C           15.75776576481906       -1.08796307731902        4.82682536034183
C           15.10123229695120       -0.26372427439052        5.74391421346879
C           15.11076803605484       -0.56840022441729        7.09515706718157
C           15.77719403108805       -1.70809054591632        7.51500079415244
S           15.79994303188879       -2.09564427112713        9.22463920694422
O           15.56474542989038       -0.92262267833078       10.01340313765943
O           14.46591518651944       -3.02104781873798        9.27310433001961
O           16.92526422292840       -2.92301202308644        9.54742505135211
C           16.43741438197166       -2.54464435144075        6.62968436063164
C           16.42636445342350       -2.22728588113089        5.28148962694062
C           16.96193929538372       -0.49287764985338        2.75617567365203
C           18.22254188054648       -0.46854658893229        3.43454523295510
C           19.17209064405741       -0.27735971836847        2.48754963721143
N           17.13560519747926       -0.27227960702652        1.40902622877993
C           18.48940855438419       -0.17693211497872        1.23702272489441
C           19.15008647655157       -0.08108857558049        0.00931698534631
C           18.46861556116584        0.05022993969742       -1.20387219066701
C           19.12765043158783        0.10750851262293       -2.46958384581440
C           18.17014457880663        0.35476168929856       -3.39553880100088
C           16.92924920062568        0.45767389586951       -2.68890868313254
N           17.11949110629210        0.22571826195733       -1.34591049521653
C           15.72292765119601        0.79903990508865       -3.28687532900017
C           15.71780798051492        1.14380037117387       -4.72789004906639
C           14.96712555678093        0.38800227478191       -5.63177199855282
C           14.95455417216229        0.71120818291880       -6.97869800752072
C           15.69862683413039        1.79768305013838       -7.40883569446898
S           15.67357709218639        2.22318418808344       -9.11036208851335
O           16.00417394498938        3.60579024764682       -9.30094902911405
O           16.95044793520868        1.35079733737569       -9.60661938248249
O           14.49222807700643        1.70541587244714       -9.73165700609883
C           16.45106250385945        2.56736701818689       -6.53647993892621
C           16.45891474119789        2.23345593862344       -5.19230519912132
C           14.52158103084996        0.83248230246697       -2.59002360029742
C           13.26828605598138        1.22270364494609       -3.16783727207494
C           12.32180500395566        1.02343293065946       -2.22131404250275
C           12.99846638221035        0.52650033434137       -1.06223257925743
N           14.35078602499547        0.44734773069801       -1.28417090152617
H           11.26687245045464        0.14919942793407        0.09596484986783
H           11.24897935523957       -0.87828985885688        2.48165748354363
H           13.14716871658566       -1.38325895296075        4.33127152316974
H           14.59571358854866        0.62928186040432        5.39539958017724
H           14.61564576320393        0.06944952780970        7.81649731500047
H           14.35210050240852       -3.39798334365423       10.15403934826854
H           16.95300446121164       -3.42452366952058        6.99347475553083
H           16.92916863215050       -2.87257494506818        4.57066195072404
H           18.35367859581640       -0.57860415532502        4.49855306639395
H           20.24104021453478       -0.20966013959227        2.60893147149322
H           20.18752551422647       -0.02536412573499       -2.61452635609837
H           18.28364581098964        0.45415724975803       -4.46263065322444
H           14.40064953471499       -0.46472962248840       -5.27619759342989
H           14.37428343256714        0.13382596951508       -7.68736847538561
H           17.31765141270024        1.73283519438233      -10.41318353479324
H           17.01213246339595        3.41689607490809       -6.90520795385928
H           17.02997890462768        2.83079124129780       -4.49119487370277
H           13.14254305971166        1.60226504313244       -4.16873515657447
H           11.25861229024448        1.19202033303583       -2.28285000937069
Ni          31.73325982356528        0.03438669410309       -0.03677140919400
C           35.12324622278675        0.13993435931092       -0.03417950756456
C           34.47555770053685        0.14650784714596       -1.25190151314244
C           35.15502220411710        0.16537361630103       -2.51147130167759
C           34.20155664814759        0.27863487817060       -3.46527143676537
C           32.94029107507146        0.34016353856919       -2.78559441813496
N           33.11646053438921        0.21768306405042       -1.43050101785527
C           31.72341332950396        0.54858829553765       -3.42193423821036
C           31.71600395937978        0.77132009158656       -4.88710544917902
C           32.37240051072924        1.87598349220428       -5.43514495598477
C           32.36226488474500        2.09205203677554       -6.80334909541900
C           31.69534214432085        1.18817907491932       -7.61423626426299
S           31.67129844178960        1.45977840296007       -9.34606227875985
O           31.90608469140976        2.84123065884461       -9.64585760080150
O           33.00511572465855        0.61791387728526       -9.73409623831095
O           30.54556291081427        0.81007517058676       -9.95077810300894
C           31.03546650349747        0.08367223197765       -7.10029818097944
C           31.04716246340117       -0.11951421695199       -5.73024905110652
C           30.51183338258647        0.55925634551271       -2.74314696039427
C           29.25130339397713        0.83213422015355       -3.36481894474763
C           28.30164289337586        0.66043741993974       -2.41420369460345
N           30.33800777146428        0.26709855928530       -1.40967556555838
C           28.98414222766820        0.29223942681677       -1.21484147536895
C           28.32315043367650       -0.07154207757771       -0.03850359290408
C           29.00436348143732       -0.39800308453576        1.13740407395650
C           28.34517849319013       -0.81232509540751        2.33468061203301
C           29.30262927295172       -0.92479932220690        3.28651685416075
C           30.54355034717954       -0.56806676108070        2.66803268845671
N           30.35345802203896       -0.28745629121389        1.33432575505544
C           31.74973062453774       -0.47108826931859        3.34991275166072
C           31.75489862229239       -0.68302927828343        4.81637521313091
C           32.50560464240387       -1.71940565966486        5.37680270602136
C           32.51871734428730       -1.91652903233129        6.74785029607448
C           31.77512303761571       -1.06562465465774        7.54917070719296
S           31.80184333702347       -1.29864161508409        9.28749228750754
O           31.47268886145453       -0.08419735251354        9.97588692533658
O           30.52474395649899       -2.29218533728798        9.42737031367978
O           32.98330685004664       -2.00999134909769        9.67216775736753
C           31.02246276021724       -0.02814544874353        7.02314293227571
C           31.01408604585525        0.15802716132739        5.65067153553992
C           32.95103989550957       -0.18222960761812        2.71482897665195
C           34.20418368690544       -0.03267109806098        3.39613609964924
C           35.15088883149532        0.13110073914633        2.44305965958483
C           34.47447443528697        0.09685092386576        1.18225797523540
N           33.12210571986544       -0.05838454080607        1.35904454086922
H           36.20638059615067        0.17309561490356       -0.03293283040924
H           36.22482348460882        0.10039808375703       -2.62959074722188
H           34.32710018653256        0.31532992779821       -4.53518785592990
H           32.87817755052777        2.57706779687488       -4.78158136504319
H           32.85721095167893        2.95125513526519       -7.23824214446635
H           33.11822849500850        0.59335195597033      -10.69205488122780
H           30.51957274880445       -0.59952694382118       -7.76321588138455
H           30.54458098222148       -0.98179963778596       -5.30792074521094
H           29.12027382486365        1.12250000426238       -4.39434587863506
H           27.23269735419302        0.76799015381734       -2.50223056831697
H           27.28530374030017       -0.98942169668395        2.42013410273344
H           29.18903089485409       -1.22663581411096        4.31483171044011
H           33.07179017776055       -2.38052842391890        4.73118413649073
H           33.09908576598302       -2.71486355643889        7.19295532695282
H           30.16243015690817       -2.24035097983993       10.32027477418356
H           30.46166514487926        0.62517522419417        7.67975015240872
H           30.44292059465860        0.97209596891442        5.21991974060247
H           34.32965522732574       -0.04902542646936        4.46649456677267
H           36.21406664305254        0.26498628339555        2.56268277715453
C           24.35049730655516       -0.13525350862375       -0.03010910101086
C           23.12270126917875       -0.13820918218696       -0.02555682379209
C           21.77772014235537       -0.12772123415108       -0.01620951368722
C           20.55470663848158       -0.11199818469061       -0.00558576538878
C           25.69547514157896       -0.12346051481070       -0.03445658219494
C           26.91850297303398       -0.10510191855085       -0.03642457153476
