402
 energy: -713.064353824601 gnorm: 0.000908232246 xtb: 6.5.1 (b24c23e)
C           65.04649404217095       -0.10851969458145       -0.03606569807986
C           65.66576604375611       -1.31546639715102       -0.33399786835428
C           65.02359974425691       -2.54315574398419       -0.65987636687272
C           65.99284578497138       -3.48354797413234       -0.86728070768481
C           67.25861715674888       -2.86265770644368       -0.66460577958809
N           67.01074415973120       -1.55555536864048       -0.35653858882336
C           68.52729363872085       -3.44359049600993       -0.77620190391569
C           68.57353051505977       -4.88973463721726       -1.09455089988191
C           69.20802536841957       -5.33823922704718       -2.25731639803324
C           69.25134548610831       -6.68688277397238       -2.55305351692438
C           68.66604064127347       -7.61992873209740       -1.69061519975550
C           68.73020198443263       -9.05418357117936       -2.02555237287059
O           69.25970938863537       -9.48691460343348       -3.01697610850794
C           68.03292459422092       -7.17358438543274       -0.52812987839518
C           67.98457160415445       -5.82218582808275       -0.23571186279535
C           69.73721529483547       -2.76475364920845       -0.60871739262333
C           71.04056505721719       -3.40270328926052       -0.66510366048488
C           71.95124047154556       -2.42933040995489       -0.45882900106355
N           69.87769434409475       -1.43593545899715       -0.35015862477417
C           71.20295508017050       -1.20197162190618       -0.26643917209028
C           71.82775116347057        0.04065375531100       -0.03846606591728
C           71.18200981735966        1.26764081145228        0.20415758737494
C           71.81659007283112        2.52076228760934        0.41324611488231
C           70.84317113084690        3.45451786394951        0.63627606529713
C           69.58312751407165        2.79653395271568        0.57844579580002
N           69.83948347016421        1.47953680177369        0.30424395695814
C           68.31591016747001        3.36890462759674        0.73608801041559
C           68.27390454175408        4.81210692488907        1.06461117405862
C           68.88428819859891        5.29100399997902        2.22844510069755
C           68.84599970585508        6.63757988147506        2.53389717936349
C           68.20151463746417        7.53899515815341        1.68007924723720
C           68.17984211127359        8.97193877199268        2.02542943193299
O           68.69381120010885        9.42978584337840        3.01386077785864
C           67.59258016891337        7.06256461710320        0.51648576887892
C           67.62657757669861        5.71308562897047        0.21397096005729
C           67.10493393202536        2.67933831137626        0.60739816495197
C           65.79525520347616        3.27377244303880        0.82712833634088
C           64.89143078997576        2.29838833616838        0.60615169010456
C           65.64783776979699        1.10618087478735        0.26505686477351
N           66.97747954467101        1.37081668662152        0.28537330164534
H           63.96130911491202       -0.12719821024399       -0.03791150446202
H           63.95566252139857       -2.67479538347098       -0.72939272141979
H           65.84977394719711       -4.51500118394750       -1.14571951476201
H           67.73114323715127       -0.86472479952119       -0.17468649894611
H           69.65197939071908       -4.61675974382874       -2.93380354203485
H           69.73722454980334       -7.04209007461222       -3.45547553178171
H           68.24388448962101       -9.71858975366021       -1.27970692498927
H           67.57995823647782       -7.89077231992704        0.14870857021045
H           67.50576109565053       -5.48092143240473        0.67529694264184
H           71.21347306925914       -4.45443284107496       -0.82545313840117
H           73.02592322633346       -2.50934655863002       -0.42627637594227
H           72.88269214448323        2.67863384468898        0.38900514664432
H           70.98252812679979        4.50825008121119        0.81421913234722
H           69.12257726089143        0.77077785818077        0.18855265923744
H           69.37218763421940        4.59364696477771        2.90014464081321
H           69.31188992043644        7.01530518420915        3.43773738934831
H           67.64447821677491        9.61012689022349        1.29044167717604
H           67.09396193475072        7.75542200911836       -0.15354028195293
H           67.16635590986851        5.34902945238671       -0.69764218262476
H           65.61705828665986        4.29481888189201        1.12373893833837
H           63.81574270301054        2.34723434404400        0.66960439304640
C          164.66011999270847        0.07926618506827        0.03037280020584
C          164.03643512591523        1.24786874563245        0.44795759113867
C          164.67377128038044        2.45758451327233        0.84315596787136
C          163.70104003485193        3.35425674134598        1.18460070115070
C          162.43796638065817        2.71690445261450        1.01984023528491
N          162.69082777676121        1.45420999291099        0.56529735036422
C          161.16708748271787        3.25825487977091        1.24565230451609
C          161.11397426085645        4.64724592649384        1.75836891305250
C          160.47182784164971        5.64791791344049        1.02209744661541
C          160.42165917114536        6.94298990430846        1.49999412494198
C          161.00744159716237        7.26744502244888        2.72823008131182
C          160.93608794946718        8.65561786528701        3.21932823524948
O          160.40112075900046        9.55167763634087        2.61811414756446
C          161.64785442978445        6.26863545491716        3.46558716900142
C          161.70320418197670        4.97305338967529        2.98329357155554
C          159.96014824028850        2.58873417545030        1.02697472278833
C          158.65550369560822        3.14728600066644        1.33481408130545
C          157.74858086207649        2.20862816271749        0.99483186327179
N          159.82434266393076        1.32906208725583        0.52998259480348
C          158.50045085860594        1.07639168297749        0.48861526269853
C          157.87953335260354       -0.09963081732064        0.02184264137451
C          158.52858713967396       -1.25512623932685       -0.45194558011272
C          157.89704216338384       -2.42341807023877       -0.95497118584625
C          158.87392352672040       -3.31334890229392       -1.30550403608039
C          160.13339002111775       -2.71824909890900       -1.01613606890691
N          159.87273253608026       -1.47211405316188       -0.51146036400777
C          161.40342419254057       -3.26682296509989       -1.22635406021318
C          161.45369839616706       -4.64490470629578       -1.76580082706800
C          160.86873488884061       -5.70425895603966       -1.06457420540253
C          160.91557174494352       -6.98813159409192       -1.57226260700759
C          161.54329754252771       -7.24304752943674       -2.79614348600084
C          161.57457767612669       -8.62075918888993       -3.31947886911385
O          161.08334018026662       -9.56326569774691       -2.75276273911710
C          162.12729703917236       -6.18584957809440       -3.49831867774630
C          162.08491814733569       -4.90135982998394       -2.98663202955443
C          162.61178550918646       -2.61071284003252       -0.96529727776032
C          163.92459291429810       -3.21680773398216       -1.12706613749741
C          164.82476370319515       -2.27771415212876       -0.77368765350290
C          164.06326435915682       -1.10284474284508       -0.38686104139040
N          162.73415426115119       -1.34367682664449       -0.50525872473391
H          165.74522496148049        0.10218903241232        0.03282853634188
H          165.74099158459458        2.61119499252891        0.85342109762194
H          163.84004391715470        4.37139914488137        1.51322501245769
H          161.97309592811979        0.77247187431674        0.34297218952691
H          160.02715422984144        5.40202291470379        0.06446213996855
H          159.92988609357423        7.72565048784380        0.93235533947816
H          161.42257446891426        8.81584826766722        4.20518524447208
H          162.10104080099524        6.51057322026599        4.42148805205565
H          162.18767842972258        4.19742119800794        3.56581707082258
H          158.47951589092031        4.11896853266533        1.76678278208497
H          156.67434037368582        2.25062877075413        1.07608694592451
H          156.83038969194089       -2.55385959431076       -1.04066506095403
H          158.73690843933676       -4.29156931957418       -1.73647263384967
H          160.58795914439807       -0.80859041189224       -0.23235829646079
H          160.39423727560100       -5.51348385316380       -0.10856019147824
H          160.46938485996841       -7.81567098230981       -1.03119618889277
H          162.09446982858171       -8.72595269262373       -4.29560075859124
H          162.61309154175694       -6.37394751128872       -4.45028210236267
H          162.52598995648177       -4.08084337087215       -3.54125819212770
H          164.10712100334911       -4.22846734479836       -1.45190064222081
H          165.90115710680485       -2.34587412145915       -0.75762075958719
C           73.23302663645266        0.07079600922404       -0.04885320919398
C           74.45712093025305        0.09798371207642       -0.06074337967821
C           75.79925196728382        0.11868328261271       -0.07005866343599
C           77.02966830491891        0.13417976547283       -0.07762705612309
C           78.36712711136830        0.14266770565203       -0.08194225294959
C           79.59771889477643        0.14290801952637       -0.08896934381009
C           80.93979873013446        0.13656256907631       -0.08604828014270
C           82.16439568288095        0.12156904817601       -0.07968741437762
C           91.81467689454796       -0.08248708609675       -0.05087757756620
C           93.03954194009037       -0.09921641541083       -0.05864743489464
C           94.38049311714180       -0.10861273649722       -0.06921181061518
C           95.61144373741003       -0.10813559588038       -0.08149441856652
C           96.94766390265120       -0.10274027860118       -0.09091559434867
C           98.17861033619920       -0.09454294560467       -0.09459441531076
C           99.51942595578862       -0.07720503341913       -0.09192799859539
C          100.74432851249334       -0.06698421796522       -0.08222459269195
C          110.38823495720459       -0.03626808917479        0.05177081993682
C          111.61315612566142       -0.03486938690419        0.04225693714871
C          112.95388923333257       -0.02817536503291        0.02631171109024
C          114.18463355986614       -0.01869967514327        0.00340030200610
C          115.52058171577062       -0.00954789518299       -0.01936111992370
C          116.75135782470326       -0.00080059661062       -0.04127400743991
C          118.09210334052801        0.00715665778038       -0.05522141570225
C          119.31702080959080        0.00635844804104       -0.06254383498385
C          128.96164216643581       -0.03159438838908        0.00733612211268
C          130.18659989728340       -0.03162705633631        0.00368680234845
C          131.52751228352645       -0.02663118799665       -0.00435453879398
C          132.75841853172523       -0.01934717835888       -0.01853851125564
C          134.09465140963962       -0.01430508754020       -0.03043435054132
C          135.32558897440489       -0.00722396450782       -0.04191732784051
C          136.66660377336237       -0.00515102216467       -0.04697206280770
C          137.89159697305064       -0.00964216491644       -0.04675872155015
C          147.54240339067761       -0.11812722496171        0.04430478325915
C          148.76683332523336       -0.13955041969308        0.04531341061674
C          150.10892477153561       -0.15709630744780        0.04346869095084
C          151.33945632248432       -0.16639011495646        0.03780209485718
C          152.67706159171442       -0.16884287018559        0.03356525872037
C          153.90754446260101       -0.16548646006898        0.02959852135347
C          155.24991298273579       -0.15232618561108        0.02400314160048
C          156.47410461033604       -0.13229574851308        0.02309793320697
C           83.56877217406232        0.09955544423027       -0.07118584268844
C           84.21450344830855        1.02111755914997       -0.91778953860122
C           83.58327517750813        1.94361474387531       -1.79175918320252
C           84.56149142941527        2.66335314238061       -2.42176500416696
C           85.81893238327132        2.20583703872028       -1.94236451556960
N           85.55875191779825        1.20660519460679       -1.04368235955403
C           87.08902671452971        2.65912973048414       -2.32048382444189
C           87.13178819495745        3.78013404668110       -3.28902804283106
C           87.75090160078430        3.61654367925402       -4.53217926840318
C           87.79440263599476        4.66279519593896       -5.43314314263807
C           87.22490808718081        5.89900059346090       -5.11030788279391
C           87.29093023861415        7.00237298385055       -6.08615872537735
O           87.80916902279722        6.90746169913499       -7.16907867040918
C           86.60654942200455        6.06393903363793       -3.86866320299991
C           86.55773902963604        5.01372488818174       -2.96924134363218
C           88.30212277197944        2.14385605310452       -1.86054201783993
C           89.60110193631094        2.68060562155607       -2.22558643417647
C           90.51909827336289        1.92272170538324       -1.59149616474106
N           88.45219481761437        1.09636603574752       -1.00384171204395
C           89.77924125222398        0.93280035637278       -0.83340815920506
C           90.41157557041484       -0.05228410162717       -0.04793336464106
C           89.76521286104372       -1.01618529151135        0.74973239866962
C           90.39516214957636       -2.02522285470017        1.52320576748526
C           89.41725848762732       -2.73796960932827        2.16133433766611
C           88.16150696981252       -2.17706545239141        1.80173210121774
N           88.42224693500890       -1.14659496379793        0.93901104967241
C           86.89223508963445       -2.59716017701203        2.21807657338165
C           86.85309496192605       -3.71803566903500        3.18695557641240
C           86.21395653046922       -4.91587391905927        2.85471369732051
C           86.18005686281204       -5.96560556971815        3.75520166973261
C           86.78086149679586       -5.83644564586402        5.00970401378498
C           86.75793569205130       -6.93933670587336        5.98809546177592
O           87.26366042652847       -6.87584748125626        7.07922959715604
C           87.41764530994763       -4.63672055350217        5.34398550857531
C           87.45621743779999       -3.59090635933789        4.44211760691790
C           85.67938124227166       -2.04809359909731        1.79710686878083
C           84.38266594846215       -2.46829757370572        2.29753595882524
C           83.46420108153397       -1.71660101347260        1.65655293292600
C           84.20166021297416       -0.83260211231647        0.77533871070396
N           85.52836114187616       -1.04560206661030        0.88885742272441
H           82.51685402007450        2.03433241237474       -1.92031711024506
H           84.42575345964561        3.43565444907911       -3.16108059905982
H           86.27099794070396        0.67837439425910       -0.55070460250839
H           88.18336176015298        2.65632261208778       -4.78943374364285
H           88.26885293291548        4.54253990920908       -6.40114055132052
H           86.81633683544125        7.94548336047428       -5.74068317818155
H           86.16556942894688        7.02071931370036       -3.60849299263390
H           86.09023842046408        5.14991833599604       -2.00048434256082
H           89.76650394721320        3.53060089421076       -2.86729857153706
H           91.59350967050419        2.00966805697427       -1.61135335299057
H           91.46041788803156       -2.18199518646788        1.57487814573954
H           89.55201856731858       -3.58365444588613        2.81558230468061
H           87.71107001483486       -0.56977133680648        0.50219676351952
H           85.75815883994588       -5.02345764449388        1.87695183519865
H           85.68704386055585       -6.89414281458984        3.48632914165514
H           86.22803121147554       -7.85005718567176        5.63629245890313
H           87.87743976971538       -4.54358429620671        6.32201930572336
H           87.93870741605552       -2.65765618972557        4.70994761404932
H           84.21948939984843       -3.22474884649731        3.04781995209906
H           82.39104708616610       -1.73271341878507        1.75874768891283
C          102.14750457081615       -0.05691912785686       -0.06072638862871
C          102.77964699572286        0.87203711069354       -0.91007515091749
C          102.13509203353532        1.76821433022495       -1.80137381372433
C          103.10135744066201        2.51187303932205       -2.42220353335910
C          104.36388848765237        2.09593593708176       -1.91933515697663
N          104.11939068867956        1.09549838820189       -1.01741422873463
C          105.62602915690502        2.58572857786210       -2.27793125675997
C          105.65234061568817        3.70351629630805       -3.25054378036322
C          106.30099612361070        3.55477706673211       -4.48043373848607
C          106.32925465958643        4.59829425346138       -5.38515768399113
C          105.71427177937029        5.81692991994317       -5.07952893877353
C          105.76489016893390        6.91790473283781       -6.05914320885573
O          106.30955045383104        6.83562864018955       -7.13000411616386
C          105.06610755944490        5.96697245940107       -3.85130208965901
C          105.03288333414324        4.91940031086601       -2.94807634819066
C          106.84526759421023        2.10740259366461       -1.79489862886290
C          108.13469218171204        2.67907963359020       -2.13964980239371
C          109.06280743081447        1.94554989026915       -1.49170722534407
N          107.00997700766543        1.06516936231124       -0.93433785755627
C          108.33814659124032        0.93628860509290       -0.74455420272047
C          108.98498624433793       -0.03402871354038        0.04758778566870
C          108.35431144693052       -1.01127206442625        0.84173235780953
C          109.00121262760440       -2.00291955852452        1.62359053963744
C          108.03493790110861       -2.73685296977202        2.25562480521635
C          106.76964021214170       -2.20708680417190        1.88325811960450
N          107.01325990583067       -1.17299992989549        1.01992399248085
C          105.50648050282996       -2.65552632921589        2.28919097753982
C          105.48227736241408       -3.77290860863562        3.26227213984253
C          104.86773166031570       -4.98367091658643        2.93011545865117
C          104.84477522319588       -6.02980136334182        3.83506801400135
C          105.43245810417956       -5.88431055822483        5.09398277102663
C          105.41970278925821       -6.98268848918451        6.07769947352568
O          105.91630044113984       -6.90583318840572        7.17212646651458
C          106.04542178296656       -4.67212905220880        5.42782897115673
C          106.07285756430483       -3.62966869809396        4.52164701040529
C          104.28612452008457       -2.13679053280475        1.85253565033515
C          102.99394621282740       -2.58172277200891        2.34293005732466
C          102.06584862356904       -1.85648184081894        1.68551732392370
C          102.79287167104211       -0.96417067092974        0.80398349592922
N          104.12226290399506       -1.14534616847472        0.93389034765928
H          101.06859849261188        1.82620257069218       -1.94707843341613
H          102.95442765294814        3.27397984782576       -3.16990420654392
H          104.83942518310353        0.59297234274039       -0.50910575330057
H          106.76862014513755        2.60774858040531       -4.72471416028778
H          106.82655713068652        4.48935085166130       -6.34295992167273
H          105.25327569232775        7.84668169999261       -5.72800708565390
H          104.58963461636688        6.91016258745241       -3.60446127266107
H          104.54203533160327        5.04457827155751       -1.98944007976650
H          108.28705319539742        3.53355173718409       -2.77863611200044
H          110.13466035366034        2.06135983587591       -1.49496179568960
H          110.06939332302596       -2.13408497432123        1.68516604266171
H          108.18396467389395       -3.57719362496679        2.91365141561751
H          106.29202118296884       -0.61549773654390        0.57456511679453
H          104.42218998993654       -5.10370328576822        1.94907226807585
H          104.37038134865655       -6.96805406966012        3.56640921235517
H          104.90787014586630       -7.90377346583545        5.72609728540750
H          106.49516388410123       -4.56648304251779        6.40925953368337
H          106.53600020794954       -2.68667403232518        4.78949492931844
H          102.83956015337250       -3.33473104002677        3.09850293391290
H          100.99230040903197       -1.89607859219815        1.77644779110302
C          120.72025184360199        0.00177048021676       -0.05765254729040
C          121.35288874759154        0.92469994398154       -0.91301051626644
C          120.70831350914912        1.82653628487752       -1.79856564517541
C          121.67572342814248        2.55884720319630       -2.43093851005719
C          122.93911143869161        2.13063037905487       -1.94050869702156
N          122.69364115804309        1.13396734012277       -1.03465755957670
C          124.20243576137918        2.60775135950933       -2.31155408258891
C          124.22944790505730        3.72229227538646       -3.28792527994823
C          124.86398752655879        3.56360105869305       -4.52388355973065
C          124.88957603800182        4.60283945994178       -5.43363130868162
C          124.28630229102475        5.82706138368248       -5.12698587749627
C          124.33201462870332        6.92262255647761       -6.11289501025526
O          124.86281911601952        6.83126438266395       -7.18995294402973
C          123.65348589024111        5.98750188246646       -3.89208964112126
C          123.62277807855958        4.94422417369803       -2.98383821931690
C          125.42150418663479        2.12093041788843       -1.83643026945486
C          126.71245897536826        2.68324405227554       -2.19059065000082
C          127.63958286041415        1.94740950802306       -1.54379263226335
N          125.58457674744194        1.08052872417725       -0.97341337172768
C          126.91301827940370        0.94486430502532       -0.78947354494506
C          127.55827900685510       -0.02673472883627        0.00232968946792
C          126.92590715856251       -1.00363445499653        0.79577517883790
C          127.57107609100022       -2.00156121379315        1.57103562744091
C          126.60376576711393       -2.73424615311127        2.20300372907787
C          125.33963278862331       -2.19671136638115        1.83812098905091
N          125.58475912757262       -1.16023411882569        0.97807541621791
C          124.07597338740894       -2.63895741784311        2.24936409513688
C          124.04888523520009       -3.76020206123000        3.21791294748083
C          123.42192140984901       -4.96432244812506        2.88473156644283
C          123.39324737972888       -6.01295847985904        3.78660618122998
C          123.98755671455979       -5.87664344680391        5.04344335632998
C          123.96743162616134       -6.97722698070064        6.02455406761044
O          124.46867842485891       -6.90797819404858        7.11737122003970
C          124.61362535874314       -4.67138261043954        5.37801419941882
C          124.64673839722015       -3.62644898855462        4.47487018802284
C          122.85661640774065       -2.10843728588755        1.82447518223317
C          121.56481252120041       -2.54408739174203        2.32417584224532
C          120.63770673128434       -1.80574403399492        1.68016966452247
C          121.36508473078189       -0.91566906705808        0.79663487484131
N          122.69373106017545       -1.11049090241976        0.91269380356472
H          119.64098967642755        1.89543990969911       -1.93305181727733
H          121.52877939497279        3.32123059184761       -3.17834784779884
H          123.41370491949098        0.62476811245676       -0.53307694166824
H          125.32213452028302        2.61215805218987       -4.76897461817960
H          125.37523771146897        4.48598824295622       -6.39646233355911
H          123.83057931513540        7.85643344017067       -5.78031139178390
H          123.18654805469988        6.93519636482270       -3.64426858242694
H          123.14351400329650        5.07721215170631       -2.02040432927752
H          126.86632206749891        3.53395442894215       -2.83423876485450
H          128.71206938353211        2.05690632913910       -1.55297037469022
H          128.63884306013620       -2.13800397671562        1.62803456381488
H          126.75129144467461       -3.57838812049091        2.85649060809072
H          124.86437863100886       -0.59710431301909        0.53842619466721
H          122.97058946327827       -5.07706816286415        1.90546733053563
H          122.90874666470719       -6.94586383019549        3.51734738798208
H          123.44513155061874       -7.89230004499121        5.67262962608697
H          125.06852210829770       -4.57283539492063        6.35780330580117
H          125.11956453887801       -2.68852931646238        4.74360323468172
H          121.41011742800924       -3.30011190547772        3.07665760676582
H          119.56473984287894       -1.83556344437269        1.78109948196480
C          139.29489011901626       -0.02123104784260       -0.03535810659326
C          139.93679624375025        0.90025719989679       -0.88510539073033
C          139.30196384681409        1.80794961812478       -1.77176278128734
C          140.27678549373795        2.53585021461317       -2.39753906744028
C          141.53547582211854        2.09929420864465       -1.90169476984719
N          141.27941828430502        1.10200639359901       -0.99941194415654
C          142.80301088898446        2.57034141295252       -2.26569717838962
C          142.83861356844642        3.68604274785961       -3.24047293260499
C          143.47713036962503        3.52584860425208       -4.47422019074177
C          143.50578401044203        4.56396464434561       -5.38514851434683
C          142.90185125762082        5.78872802364514       -5.08191919772267
C          142.94832370749779        6.88210319563495       -6.07017530447532
O          143.47860389086836        6.78790711267693       -7.14728752104437
C          142.26654375449630        5.95130454712608       -3.84855514263352
C          142.23277821060071        4.90914684706620       -2.93914675710210
C          144.01812284395729        2.07499765943444       -1.78803759110603
C          145.31319949312208        2.63239859327847       -2.13560587593608
C          146.23478457306061        1.88700898523591       -1.49185548965806
N          144.17315531681973        1.02886702574110       -0.93126065473039
C          145.50103775828737        0.88352023721410       -0.74584987766424
C          146.13780891034224       -0.09951845022815        0.03756269149689
C          145.49597021981006       -1.07546849073656        0.82400369698368
C          146.13070375530913       -2.08186391207016        1.59722209031776
C          145.15587942813164       -2.80622561362334        2.22696142781123
C          143.89717631732532       -2.25559222560100        1.86232132723377
N          144.15294672695961       -1.21968079839830        1.00493495164338
C          142.62952729601082       -2.68768894671458        2.27189348368479
C          142.59269127404298       -3.80951709315375        3.23974324747599
C          141.96211638641029       -5.01073266442348        2.90319945596532
C          141.92325891288715       -6.05887229284586        3.80529532185626
C          142.51027259905115       -5.92457914115457        5.06578135626084
C          142.47767768574928       -7.02402091123685        6.04777253002559
O          142.97057977900772       -6.95588148631581        7.14447574586321
C          143.14032124766220       -4.72226619050196        5.40347941288077
C          143.18413876990314       -3.67808976367719        4.49991382168570
C          141.41443154202148       -2.14778627767152        1.84689205810007
C          140.11901151041371       -2.57712280712264        2.34297681538035
C          139.19750460467441       -1.83214665637477        1.69860635722112
C          139.93194561322767       -0.94413188410196        0.81882666882221
N          141.25919648510362       -1.14674411251588        0.93728562685586
H          138.23574163497375        1.88336406781305       -1.91147539873094
H          140.13776620622676        3.30044089538665       -3.14419651786790
H          141.99355412933207        0.58682333298006       -0.49551661699551
H          143.93508138394066        2.57374449850906       -4.71713502854884
H          143.99379918445771        4.44555737610625       -6.34660725896489
H          142.44605354039200        7.81641835454140       -5.74030270816053
H          141.79932008094170        6.89951288528242       -3.60320245871932
H          141.75091190718885        5.04364223514918       -1.97720853851684
H          145.47310475901401        3.48662150025310       -2.77312328615394
H          147.30793657264454        1.99019872879736       -1.49788391479428
H          147.19703400779872       -2.22881389729983        1.65485274245731
H          145.29441535901037       -3.65295495903705        2.87908414668681
H          143.43877398780486       -0.64790081031573        0.56635514388698
H          141.51574737167323       -5.12154046336986        1.92144240959780
H          141.43607235466482       -6.98965136943239        3.53354650968842
H          141.95530799580530       -7.93763746637053        5.69219802516962
H          143.58953737545485       -4.62531896332070        6.38604339561566
H          143.66031528496239       -2.74244507375267        4.77065255416186
H          139.95843479897482       -3.33434163800577        3.09302857550640
H          138.12414271067564       -1.85607551438482        1.79700305064595
