181
 energy: -327.052564161601 gnorm: 0.000879720603 xtb: 6.5.1 (b24c23e)
Co          33.83922123239267        0.03264061436225        0.05514786373834
C           30.47098668033144        0.03285247976678        0.19857461210659
C           31.12293251269211        1.24398401037672        0.10405984675168
C           30.45870301733530        2.50915491550814        0.02402977845845
C           31.41742763629910        3.45882279366912        0.13433528173636
C           32.66451750512683        2.77106906413957        0.30100714493411
N           32.48057147075441        1.41536640018104        0.20855187953948
C           33.86080416363926        3.38923971337109        0.64262534412928
C           33.87530610923115        4.84651386398522        0.89774741703841
C           33.06834023958512        5.40112424355512        1.89412566220506
C           33.08888371549793        6.76198218312655        2.14101085828727
C           33.91722713492776        7.59880602564844        1.38726759141179
C           33.94019204456146        9.00002969927854        1.63765750529321
N           33.96022599441812       10.13232231532556        1.84206616152512
C           34.72383333778340        7.04934949188722        0.38623734554062
C           34.70302601054064        5.68684732467724        0.14906241571591
C           35.04357264095764        2.67457870587743        0.76640334971946
C           36.28700905326563        3.24037624322096        1.19605693674945
C           37.23244200528929        2.28595311522079        1.01913668444248
N           35.21771258098345        1.36114307087431        0.39606009991780
C           36.56311293431900        1.14054720123138        0.48935349630422
C           37.22910447900428        0.01574519551411       -0.00423636796480
C           36.53679954950655       -1.09374680278662       -0.49702204982246
C           37.17595104948807       -2.22973234001389       -1.08130526505265
C           36.21115369615489       -3.16146650921920       -1.27399913231835
C           34.98842010774472       -2.59582584080122       -0.78800083763668
N           35.19147084636048       -1.29775047488477       -0.37768663232555
C           33.80675227097174       -3.30472993261438       -0.63140651145130
C           33.78736457944363       -4.75079979591911       -0.94421750172739
C           32.91541760160916       -5.25275704902020       -1.91336219746731
C           32.89893100027004       -6.60259593803658       -2.21482520000214
C           33.75394010449423       -7.48129314144682       -1.54294088631016
C           33.73874785694085       -8.87147493429721       -1.84927025300714
N           33.72782124903640       -9.99519528995670       -2.09689811635244
C           34.62442812475323       -6.98483147593665       -0.56810387443579
C           34.64060405321355       -5.63276625752837       -0.27668352061887
C           32.64155773460159       -2.69562496786254       -0.18165886757399
C           31.41318941402783       -3.38975638734286        0.07299535718390
C           30.47323907499498       -2.44591334334942        0.31547835432373
C           31.12958302676316       -1.17789553864199        0.21484488777711
N           32.47094853508143       -1.34472973651198       -0.02535224779453
H           29.38875703886952        0.03219351164308        0.25176478380006
H           29.39440338214778        2.63373871692200       -0.09638275428190
H           31.30382834404575        4.53049932405737        0.11124437871596
H           32.43556408116154        4.75391478228372        2.49082945803325
H           32.46551810561033        7.18395149180422        2.92060131505378
H           35.36451742880837        7.69545239308085       -0.20237634029357
H           35.32175050445236        5.26582235465617       -0.63534981713778
H           36.40931877640472        4.23880871886623        1.58311568309795
H           38.29113258523278        2.34010369694779        1.21524136664458
H           38.22867475196144       -2.29199599782326       -1.30525932890042
H           36.30861715833028       -4.14587061867349       -1.70185096332615
H           32.25957598053635       -4.57262869078596       -2.44500750449315
H           32.22523327745731       -6.98358168007458       -2.97335623869806
H           35.28515586574154       -7.66381081434267       -0.04195580639950
H           35.30829834487666       -5.25342805373667        0.48859654298456
H           31.29933057357573       -4.46164486731368        0.06388221630874
H           29.42517166601841       -2.57561895811800        0.53331994876667
Co          60.61210081802485        0.00372465860173        0.08032480921815
C           63.98362309473272        0.01751480218114        0.24835311944196
C           63.33408847225637       -1.19781312581065        0.23033808145397
C           64.00487205830558       -2.46203507078236        0.23958735131987
C           63.04766264696687       -3.40855297405817        0.38042374199139
C           61.79422175512751       -2.71891702949013        0.47807469081381
N           61.97504754344678       -1.36842860552881        0.31706529651773
C           60.59321640968775       -3.32823672326024        0.81339146369989
C           60.57866995122671       -4.77415976432060        1.12977633029601
C           61.34664552891352       -5.27818214432474        2.18207680134996
C           61.32546318778441       -6.62740153278288        2.48640590895293
C           60.53574054084446       -7.50305956990152        1.73534001518498
C           60.51155321579026       -8.89216681130122        2.04564771673056
N           60.49115631207663      -10.01478329110589        2.29716678390132
C           59.76819932199970       -7.00419442315976        0.67861844747902
C           59.78933385597958       -5.65289478855645        0.38400553459935
C           59.40436906746741       -2.61621534017929        0.87901427685645
C           58.15643591998297       -3.17663375283960        1.30259202283011
C           57.21057854820484       -2.23131462871284        1.08758035911263
N           59.23196513313579       -1.31516512233624        0.46777835015864
C           57.88331395640303       -1.09642779344181        0.53924757684954
C           57.21811734543424        0.01776910851868        0.02798423306638
C           57.90549692748049        1.11523654173463       -0.49082774355446
C           57.25936956249822        2.23498302933217       -1.09871976637410
C           58.22407620637008        3.15337829647356       -1.34484904068870
C           59.45447667096981        2.59785099536939       -0.86665193904848
N           59.25509662620117        1.31774847166250       -0.40266751405303
C           60.64362085393148        3.30555440684802       -0.77680574804080
C           60.66319947436725        4.73379929326060       -1.16605790468661
C           61.49663849987168        5.17348564626703       -2.19707985180298
C           61.51327334431019        6.50550428033247       -2.56983740432782
C           60.69756099558251        7.42843609815531       -1.90855730988050
C           60.71179833401205        8.80033802513569       -2.28845109657193
N           60.72024396194484        9.90920659205372       -2.59627174995545
C           59.86661723174642        6.99446688345488       -0.87136014624322
C           59.84974376358213        5.65969568955647       -0.50878383739778
C           61.81459673944190        2.71645865412066       -0.31980104232293
C           63.04778126254524        3.42200566125722       -0.12684825254774
C           63.98599566550547        2.49483490450936        0.17642379764374
C           63.32503701907451        1.22516791777439        0.17073586884758
N           61.98283164076764        1.37775926726839       -0.07508155816271
H           65.06526742382127        0.02322976992533        0.31151340351468
H           65.07223058088189       -2.58734720703466        0.15106365436546
H           63.16540737162855       -4.47926270210276        0.42089354730489
H           61.94948585225622       -4.60039140406750        2.77583798900426
H           61.91819348846556       -7.01006818884183        3.30899949440402
H           59.15743444494684       -7.68062021289984        0.09224787284004
H           59.20057622357984       -5.27097388007327       -0.44236784940781
H           58.03234340755812       -4.16553087433229        1.71282215459878
H           56.14927883261752       -2.28445399144041        1.26927648257855
H           56.20241651647382        2.29486062697671       -1.30248326886586
H           58.12239740281226        4.12316459903974       -1.80395430000438
H           62.12241167745230        4.45854410670054       -2.71922612018222
H           62.15661067700150        6.83810128338102       -3.37601263980005
H           59.23714482938835        7.70827424588806       -0.35303739423083
H           59.21253772959663        5.32876648611504        0.30350958942623
H           63.16485428213166        4.48999961018346       -0.21452092173818
H           65.03608726591460        2.63546839126149        0.37714625678382
C           39.85386972952129       -0.00316580539684       -0.02548365110498
C           38.63126053818252        0.00474292043220       -0.01666811757832
C           41.20168177143179       -0.00480539262766       -0.03589454928988
C           42.42449234486164       -0.00547141967290       -0.04105206441288
C           53.23918989423808        0.03857915018992        0.00675757491319
C           52.01779108605896        0.03770543427119        0.00238492125300
C           54.59031225169518        0.03405700934624        0.01898110409752
C           55.81141309533159        0.02768800977001        0.02228842308054
Co          47.21929784011731        0.00886707735768       -0.00353646328489
C           43.82590660323287        0.00193731328543       -0.04475270588008
C           44.51409078544849       -1.20332525931874       -0.21382924284513
C           43.87064307019162       -2.47161252159659       -0.34375788359417
C           44.83177192672754       -3.35950378154642       -0.69825990042734
C           46.05653729536223       -2.62460977035971       -0.79270710373837
N           45.85811767887971       -1.31285962693186       -0.43052641822084
C           47.24102799784504       -3.13584308997860       -1.30492326834598
C           47.25084446732362       -4.50854239212729       -1.85624236071474
C           46.40292540033413       -4.85315719684105       -2.91164202160326
C           46.41240802463923       -6.13419283381784       -3.43325071359004
C           47.26963294227244       -7.10157857669789       -2.90050276574334
C           47.28004934503504       -8.42198921683950       -3.43272500051254
N           47.29053417109615       -9.48892397186171       -3.86346709240403
C           48.11669576819333       -6.76305116369727       -1.84105679193207
C           48.10735872572496       -5.47817605169868       -1.32906790633671
C           48.41789707902139       -2.39869778441083       -1.31013681176546
C           49.65492031871818       -2.85817064983142       -1.86549250318399
C           50.60524432747925       -1.96806585314923       -1.48972804697788
N           48.59604494037323       -1.19382437583997       -0.67219501440963
C           49.94276715902708       -0.96287294931097       -0.72096781979231
C           50.61253889610565        0.03485758626866       -0.00965976977526
C           49.92414368410136        1.03101214916032        0.68614074854906
C           50.56518860236101        2.04413403105730        1.46224503143847
C           49.60339431335242        2.93471805184313        1.80779098735571
C           48.38082018143745        2.46496610827311        1.23034564957539
N           48.57971239795913        1.26156418619224        0.59728078238006
C           47.19718786534465        3.19128210682434        1.20205736136445
C           47.18861886306176        4.56734879389161        1.74549043164085
C           46.33607705930913        4.90716260671217        2.79862293614943
C           46.33211835888358        6.19020093745135        3.31540654963843
C           47.17990438902972        7.16417489630692        2.77961428323490
C           47.17750298127507        8.48606405365946        3.30830377268147
N           47.17667491439177        9.55419222848091        3.73622326713691
C           48.03115957196730        6.83038411005276        1.72201022810793
C           48.03589224387655        5.54332478185851        1.21538237739415
C           46.02293311017348        2.66216388135562        0.68611730465295
C           44.78791310041762        3.37986293986608        0.58970200546257
C           43.83802523097482        2.47625887874821        0.24615361462317
C           44.49899799985607        1.21623293690295        0.12060514212411
N           45.84341345432944        1.34722422804654        0.32264614913947
H           42.81758226011096       -2.64273103065536       -0.18886196992590
H           44.73098515540734       -4.41698005483260       -0.88054657543098
H           45.74572948324566       -4.10232673601506       -3.33551202396489
H           45.75703315773928       -6.39216557629348       -4.25682963220622
H           48.77920297187156       -7.51164910558079       -1.42267832259881
H           48.75649597424565       -5.22296658569133       -0.49911961312986
H           49.77116670599149       -3.74884714937376       -2.46106542187042
H           51.66256518130714       -1.98079769853761       -1.69952953649975
H           51.61709392192174        2.06144737345479        1.69747022037495
H           49.70262972684735        3.83062160208270        2.39865227083645
H           45.68644531458329        4.15116010482177        3.22497747322678
H           45.67383202796463        6.44445527167655        4.13782933960444
H           48.68633846017224        7.58414208842524        1.30136698606874
H           48.68940623549650        5.29079035839469        0.38806725469122
H           44.67271063670830        4.43646588936508        0.76828198140872
H           42.78194427977053        2.63152291025066        0.09534993469637
