254
 energy: -467.536853851894 gnorm: 0.000885183226 xtb: 6.5.1 (b24c23e)
Cu          42.92937493866837        0.03073918711411        0.01415323523813
C           39.52357848733838        0.05396496526592        0.09529476122921
C           40.16121779568152        1.26752754101371        0.30322241924276
C           39.48863967728727        2.51909200791766        0.50376582754990
C           40.44935883441159        3.46193599775792        0.66641540358407
C           41.71851557719176        2.79157079907117        0.57930172247331
N           41.51256811546067        1.46175039614585        0.35075086914604
C           42.96511069573565        3.41243998127627        0.68999797480815
C           42.98069516181666        4.86810720812829        0.97430737962353
C           42.42913221863973        5.36535438813003        2.15728100707508
C           42.44162357423429        6.72253110736301        2.42482254133660
C           43.00413819385062        7.61287664122849        1.50539135972299
C           43.01414387892118        9.01066072548343        1.77478185529931
N           43.02327656889836       10.14056401019821        1.99294859978710
C           43.55592449761481        7.12049025668750        0.31895080299945
C           43.54521563116388        5.76149315871654        0.06099436962037
C           44.19710752615629        2.76956976799777        0.55339849491322
C           45.47542183404357        3.39697795990130        0.73506452970191
C           46.41931173151579        2.44355916456174        0.53077856535315
N           44.38232979160610        1.44568932425833        0.25418369302128
C           45.72551951337027        1.22742553669279        0.23051946115937
C           46.35923835015958        0.00429018325224       -0.05230218954246
C           45.69663014952767       -1.20764626752349       -0.31598667607071
C           46.35942610521847       -2.43229370598328       -0.64963899469325
C           45.39361814145519       -3.36978211941186       -0.82328562367334
C           44.13317525824986       -2.72439735341243       -0.58749767598108
N           44.35029202584053       -1.40511602338479       -0.28933979852622
C           42.88699481301725       -3.34843058686135       -0.67359771306847
C           42.86723863534971       -4.80214903092767       -0.96741781987663
C           42.25328574560866       -5.28190265538635       -2.12670427450919
C           42.23081548491909       -6.63710337003088       -2.40332250242740
C           42.82046832348210       -7.54307492601241       -1.51673286439022
C           42.79460743363010       -8.93885762229591       -1.79524321453703
N           42.77285718689384      -10.06722065189213       -2.02026418106558
C           43.43480059772502       -7.06824095945403       -0.35411362150458
C           43.45859541426713       -5.71113341068429       -0.08711166764274
C           41.65578089093693       -2.71082044588584       -0.50182906479505
C           40.37496812083484       -3.36392129898671       -0.52945665004635
C           39.43609692656182       -2.40929674295975       -0.31595427499516
C           40.13432071331642       -1.16747913769002       -0.14472129304832
N           41.47907341312074       -1.37939487481300       -0.25867766507826
H           38.43885135923405        0.06101183297330        0.12196125612424
H           38.41770888671793        2.64718498360406        0.50657006748615
H           40.31749064033921        4.52085668866318        0.82003169616376
H           42.00230832430859        4.67690520601711        2.87791352768657
H           42.01685056875974        7.10030872240097        3.34748483967962
H           43.98991104362858        7.80808906148808       -0.39750062297442
H           43.96337771960319        5.38435367443938       -0.86547256893074
H           45.62723287911910        4.43065342404557        1.00043288010935
H           47.49154543941611        2.54376815762675        0.58347695467518
H           47.42718120659829       -2.54815984861339       -0.74467522633302
H           45.51900564987827       -4.40383743554322       -1.10072173646961
H           41.80473224323248       -4.58140660321442       -2.82209627180531
H           41.75734460816666       -7.00124913316063       -3.30758492344418
H           43.88995241735901       -7.76798152707650        0.33700024445163
H           43.92512822982913       -5.34765396986596        0.82154672033979
H           40.22156066609145       -4.42034160477851       -0.68025530507727
H           38.36471418882544       -2.52328377955313       -0.26646945912534
Cu          98.77138320244457        0.00383622188760        0.02823800902159
C          102.17766948740120       -0.02208546848704        0.08855413836140
C          101.53933352309595       -1.22141497208402        0.36540792716231
C          102.21112848420553       -2.46165368973418        0.62911808277408
C          101.24989322183356       -3.39291825119248        0.84617439671971
C           99.98124503580262       -2.72608055988827        0.72923041829684
N          100.18796574808104       -1.41052633816954        0.42984694457841
C           98.73439057321494       -3.33869036761038        0.87650435534716
C           98.71856836402834       -4.77766468019153        1.23606413079480
C           99.27233574449234       -5.21281827488119        2.44224599190683
C           99.25998924827296       -6.55421010584572        2.78016339676183
C           98.69542502530888       -7.49101520475851        1.90944064871122
C           98.68515830007932       -8.87280296918581        2.25149713978282
N           98.67741105312332       -9.98989572971194        2.52781243110837
C           98.14150735961566       -7.06088299892620        0.70000424942941
C           98.15204427798565       -5.71715599753108        0.37159313622202
C           97.50259890018768       -2.70219040164710        0.71124157250044
C           96.22424537824014       -3.31840589660682        0.92790227082177
C           95.28063469996644       -2.37515580740699        0.68003029446025
N           97.31772782385097       -1.39460245181771        0.34741646854409
C           95.97462299492844       -1.17597850814899        0.31811323926648
C           95.34132375572148        0.03366001854286       -0.01769740610550
C           96.00398642167698        1.23067314645927       -0.34171649645883
C           95.34080543326478        2.43913098743344       -0.72944845904347
C           96.30701336058441        3.36393674302976       -0.95936571579089
C           97.56824718795323        2.72763557432696       -0.70372714400428
N           97.35100643649008        1.42580944113670       -0.33702651032592
C           98.81507333322453        3.34241016413790       -0.83528205779731
C           98.83582829515652        4.77784185839967       -1.20837971366271
C           99.43899592214683        5.19061544322266       -2.39872263043033
C           99.46227502171686        6.52830003477410       -2.75031552857040
C           98.88426960510660        7.48393573131321       -1.90934742628780
C           98.91132940785413        8.86211551422084       -2.26480315815787
N           98.93312335875277        9.97560157641229       -2.55472280722438
C           98.28088982671207        7.07627678590255       -0.71592859135952
C           98.25628415092186        5.73614634295555       -0.37376047779640
C          100.04632970981268        2.71131017934716       -0.64134123527595
C          101.32827677549926        3.35861411836354       -0.71530566797881
C          102.26686274435572        2.41470971847120       -0.45757809197789
C          101.56748585221887        1.18581932826976       -0.21330234647178
N          100.22228267437603        1.39458441128347       -0.32786466986905
H          103.26253434143466       -0.02991502439694        0.10860521950865
H          103.28188134471475       -2.59117557928770        0.63369575103015
H          101.38098925229411       -4.44239623265630        1.05526483118626
H           99.70084224315146       -4.48791233406326        3.12514541165041
H           99.68644435174797       -6.88355618260729        3.72043980915051
H           97.70598584168783       -7.78472233936673        0.02116900652224
H           97.73215291866802       -5.38860446683630       -0.57242916808431
H           96.07235779289446       -4.33758578448706        1.24436018523194
H           94.20848338288168       -2.47129876648574        0.74138807831920
H           94.27244849565230        2.55305561438998       -0.81996594989354
H           96.18122922179285        4.38313110164113       -1.28704282259346
H           99.87847688297447        4.45116928699029       -3.05868452088799
H           99.92738849520272        6.84020798862508       -3.67813912438812
H           97.83491258811608        7.81475983700346       -0.06004494846259
H           97.79843492195596        5.42521236783697        0.55849989598739
H          101.48262590904827        4.40483481802663       -0.92481388531724
H          103.33885893975118        2.52847705986904       -0.42314256941612
C           47.76460158648047       -0.00629870673532       -0.07182561087133
C           48.98910951511866       -0.01094795687500       -0.08174381025435
C           50.33188713931087       -0.01251669324790       -0.08881138160782
C           51.56263383621132       -0.01059325467552       -0.09012542725967
C           52.90053797666359       -0.00695996598474       -0.08864398403340
C           54.13134369758101       -0.00176028995299       -0.08409729887591
C           55.47387216651371        0.00374468429676       -0.07712559658967
C           56.69863600984763        0.00868089431952       -0.06889753678990
C           66.38222371130209        0.02159463450891        0.01170958852166
C           67.60712154092916        0.02211602230089        0.01644384513888
C           68.94958749749144        0.02283222615118        0.02009429061162
C           70.18057055614860        0.02366712173632        0.01999859848100
C           71.51829498294769        0.02492536268696        0.01766981999250
C           72.74926395127825        0.02577324007638        0.01333743381347
C           74.09172733713852        0.02683567554747        0.00762218482595
C           75.31660275240208        0.02878844896359        0.00212047095098
C           85.00099137975707        0.05525155023757       -0.02855576552376
C           86.22562274106842        0.05946191589725       -0.03297151167632
C           87.56848296294969        0.06346394921989       -0.03940509413009
C           88.79917426870331        0.05880294852519       -0.03954788635676
C           90.13741930843058        0.05977848177924       -0.03905175619827
C           91.36801172602426        0.06061488996862       -0.04089381245525
C           92.71110476463512        0.05346689713812       -0.03702123768664
C           93.93549131536450        0.04576333311325       -0.03134266636560
Cu          61.54043676690328        0.01571177556941       -0.02914974469253
C           58.10337019936561        0.01162049291319       -0.05864006513500
C           58.75769060392962       -1.15752525462579       -0.48769413084799
C           58.08554689585054       -2.35701685668230       -0.88719698155386
C           59.04588734177445       -3.24795606099330       -1.24273308786902
C           60.31141989885062       -2.59322840504717       -1.06991683304930
N           60.10316039656195       -1.32392206032281       -0.60029363944574
C           61.55517618409133       -3.17506584108611       -1.32524203541399
C           61.56013842156824       -4.54784744994005       -1.88736506807759
C           60.97863035290098       -4.80473738264617       -3.13110745521820
C           60.98221120167065       -6.08277248693502       -3.66034974972735
C           61.56553063820880       -7.13463204605461       -2.94767032991899
C           61.56715085468241       -8.45191143465564       -3.48735113010071
N           61.56749235187230       -9.51679736907579       -3.92350943211324
C           62.14643675965753       -6.88332534676453       -1.70112173345814
C           62.14470326041362       -5.60145249616764       -1.18100002065680
C           62.79351020142541       -2.57130729682313       -1.09612387741332
C           64.06493790533848       -3.15186609654991       -1.42231031129498
C           65.01697326812798       -2.25862201000580       -1.05052860048294
N           62.99010126682671       -1.33263501900477       -0.54613835804477
C           64.33388355964541       -1.12482392445302       -0.50451382038081
C           64.97752397505025        0.01899845154618        0.00241494453398
C           64.32255068377238        1.16132587831782        0.49790221180368
C           64.99329957180829        2.29692954930273        1.05524252547891
C           64.03292766663526        3.18949891408870        1.40672424589269
C           62.76888328347107        2.60638204356497        1.05714001554551
N           62.97786376507278        1.36673998318165        0.51408535810076
C           61.52551388324328        3.20930621868925        1.25993380099060
C           61.51851757010420        4.58566397579937        1.81322557166736
C           60.91302237362233        4.85154673270907        3.04352007625228
C           60.90519145595869        6.13374044960863        3.56268359985010
C           61.50110898774444        7.18067040288231        2.85320228678353
C           61.49113490557533        8.50229943053001        3.38206142999266
N           61.48223845113669        9.57068565256213        3.80945759223929
C           62.10647816098596        6.92025152149751        1.62022059742967
C           62.11592700693017        5.63439123679931        1.11024653531038
C           60.28764551882582        2.62423849082163        0.98409750033528
C           59.01777989599149        3.27651403466170        1.13282027826600
C           58.06574112175975        2.38195205839710        0.76425409480740
C           58.74745697597235        1.18299023593220        0.37971890482227
N           60.09042573103851        1.35296921806130        0.51484859681296
H           57.01605439031912       -2.49376314058511       -0.88481631538660
H           58.91268252662039       -4.26366880679522       -1.57816635188254
H           60.53508463171337       -3.98940260984012       -3.69140583707681
H           60.53426899637326       -6.27323822273033       -4.62859977861358
H           62.59624611759096       -7.69700191879062       -1.14431187701932
H           62.58580065998108       -5.41253120740999       -0.20880952149625
H           64.20744011400711       -4.11284023981501       -1.88938720581198
H           66.08762799168076       -2.34741279810861       -1.14178812792605
H           66.06187360398451        2.38735515455983        1.16711894632362
H           64.16490551227088        4.15153592702952        1.87471179583158
H           60.45955426008045        4.04018043761275        3.60163088356310
H           60.43840980814863        6.33126362546408        4.52057063309448
H           62.56638420492946        7.73001334882339        1.06595293861373
H           62.57605595223561        5.43828847771586        0.14835279316853
H           58.87639513441214        4.29302537702345        1.46243671631690
H           56.99610611893767        2.51600437825334        0.74316362218004
Cu          80.15871056412368        0.04273061927726       -0.01577448911753
C           76.72135508131977        0.03260375584764       -0.00341213060039
C           77.37245591385117       -1.13424843508215       -0.44372160149773
C           76.69743959054411       -2.33352159548481       -0.83912620769866
C           77.65500303450979       -3.22336025871464       -1.20479627610416
C           78.92171046533294       -2.56824057579306       -1.04237239977849
N           78.71690957813580       -1.29949281678621       -0.56950116402276
C           80.16348246654645       -3.14968062285047       -1.30777944376650
C           80.16603018467850       -4.52355803287113       -1.86738715776213
C           79.57717336585013       -4.78396407609642       -3.10686156848727
C           79.58250996866877       -6.06250473224330       -3.63496857188768
C           80.17499400742196       -7.11128232228043       -2.92538737209631
C           80.18216633297662       -8.42824701809274       -3.46574763068177
N           80.18705189437698       -9.49421017635510       -3.89909406023160
C           80.76224795867437       -6.85669818746854       -1.68244108324559
C           80.75863006603954       -5.57438145884073       -1.16347578980454
C           81.40353453442422       -2.54463626275042       -1.09125127816410
C           82.67226763771633       -3.12519485592346       -1.42819052027510
C           83.62715002942430       -2.23008174699342       -1.06864409681637
N           81.60440758613504       -1.30425867785490       -0.54705364655947
C           82.94846153151832       -1.09506821886667       -0.51962251368294
C           83.59579568897195        0.05193460201476       -0.02571158847559
C           82.94522170827770        1.19562418544279        0.47158730137997
C           83.62098767958452        2.33450714024841        1.01619304143133
C           82.66344929644956        3.22522540487002        1.37961065331267
C           81.39597853501731        2.63780735207053        1.04991710682730
N           81.60030852603181        1.39789584256441        0.50600352856941
C           80.15401511481512        3.23679915577876        1.27218214455579
C           80.15266938146291        4.61266587952427        1.82684594088678
C           79.56961230007092        4.87534365136012        3.06857353690415
C           79.57083419863535        6.15631755536219        3.59082688488134
C           80.15325250222062        7.20517604824049        2.87304196145814
C           80.15448020558716        8.52508337723756        3.40624581038837
N           80.15622064087756        9.59192631838275        3.83758079383857
C           80.73499505879826        6.94818792277754        1.62802312655688
C           80.73560327994852        5.66353163993296        1.11494833612413
C           78.91387402788622        2.64788329585775        1.01592689083264
C           77.64455861555741        3.29604798931993        1.18568627363313
C           76.68964973915980        2.39974816478678        0.82901313087169
C           77.36885176162100        1.20366419197598        0.43112884928150
N           78.71316685719538        1.37694489228517        0.54711930771349
H           75.62807335121892       -2.47080699168043       -0.82726749139485
H           77.51943139363682       -4.23859384748838       -1.54075604988759
H           79.12703085168191       -3.97092314232477       -3.66521334801428
H           79.12954350996061       -6.25553984111623       -4.60036782010760
H           81.21915758547529       -7.66800514204798       -1.12795402521463
H           81.20527679410367       -5.38274283478706       -0.19434677732981
H           82.81110022252210       -4.08745350376228       -1.89371009259232
H           84.69692138343652       -2.31807359894623       -1.17049619899636
H           84.69080949760111        2.42796530771228        1.11251244578009
H           82.79972253449318        4.18865014097589        1.84348620141901
H           79.12722823730893        4.06236154644642        3.63317895137507
H           79.12216872385858        6.35129426087299        4.55784299335070
H           81.18407142225824        7.75950918329881        1.06718930213669
H           81.17787739612555        5.46988599230219        0.14421332001702
H           77.50542220238113        4.31127625318769        1.52018488881128
H           75.61945723302358        2.53085219825016        0.82439725293996
