126
 energy: -237.624403739074 gnorm: 0.000391480192 xtb: 6.5.1 (b24c23e)
Fe          19.02260137130541       -0.04724411131212        0.04280184986910
C           15.63776450579408       -0.16782530494882        0.06883050206493
C           16.29777339921078       -0.36962623333257        1.26354584468468
C           15.63065907458429       -0.59313722328602        2.51088346133433
C           16.58787182923176       -0.59484605996724        3.46802095544608
C           17.84094907439131       -0.38344817269033        2.80223891586247
N           17.65245664876140       -0.27851023290381        1.45046319394263
C           19.05034698941145       -0.19450134070822        3.46160212140283
C           20.24915163604537        0.02040504239980        2.79551433737752
C           21.50987042440329        0.19672469844764        3.45268258775761
C           22.45486766334918        0.22548942566856        2.48248118822966
N           20.42666730962907       -0.03942645852386        1.43391116530803
C           21.77267473082906        0.05616104604096        1.23833370649581
C           22.43232528333966       -0.07875164687385        0.01060483893859
C           21.75070513992657       -0.19823084085073       -1.20600220718709
C           22.40723860307017       -0.36996531923719       -2.46356729672582
C           21.44554816064284       -0.31372490599434       -3.41631892625380
C           20.20260445637030       -0.10530663897520       -2.73534854414854
C           18.98904914096204        0.10102679771020       -3.37862642944101
C           18.98305734268109        0.19867613939683       -4.85566203848730
C           18.25156503886338       -0.70970542281734       -5.62540045631902
C           18.25794403897515       -0.61841614141933       -7.00508871525394
C           18.99148506226594        0.38505575894327       -7.64080106333985
C           18.96786326293101        0.44108497320509       -9.12243177305124
O           19.71751802164549        1.42896689651760       -9.63400161388621
O           18.34418765499883       -0.31608193910456       -9.82155790588055
C           19.72038104336621        1.29685921220321       -6.87669634589841
C           19.71674475897195        1.20077782702610       -5.49629477997311
C           17.78307315696721        0.21185081335665       -2.69414847455970
C           16.51631836495039        0.44936221412740       -3.32414419529337
C           15.57415628309096        0.35368946248797       -2.35630847222478
C           16.26758138353909        0.07888057443880       -1.13418084337027
N           17.61989578561468        0.02955236873741       -1.34758735656142
N           20.40116245320173       -0.09225287902803       -1.37583364439504
C           19.06601259992870       -0.22961589800127        4.94364076542048
C           18.78725535138128       -1.41744785661527        5.62352603212820
C           18.82192931462511       -1.45320727272817        7.00551175799479
C           19.13161662250389       -0.30162617694834        7.73144144408146
C           19.16433915094727       -0.39215673322601        9.21120174205363
O           19.50183858878519        0.75881133860531        9.81190066148415
O           18.91805872319200       -1.39154469979770        9.83686273943695
C           19.40259869657576        0.88875091221059        7.05623867812934
C           19.37123897364001        0.92167983146745        5.67289684503820
H           14.55384803138137       -0.18813170542553        0.07892469737935
H           14.56461216894100       -0.71217215039186        2.62153622258929
H           16.46790856838841       -0.71131066344406        4.53287656877042
H           21.64706892756216        0.27446094517434        4.51875679561926
H           23.52070009745066        0.34478505367178        2.58770002112171
H           23.46727565604479       -0.51838601854255       -2.58840478075624
H           21.55759265908511       -0.41190671427396       -4.48369361400310
H           17.69383315822744       -1.49903451866945       -5.13451231805256
H           17.69799664302439       -1.32385319186264       -7.60916358696443
H           19.64985742535013        1.39663755818442      -10.60212207827365
H           20.28827687872682        2.07941590701381       -7.36580853534605
H           20.27423925572141        1.91567405776658       -4.90168193692787
H           16.37836029867267        0.66225506425035       -4.37176109887490
H           14.50459381081095        0.46106809622833       -2.44214370404122
H           18.56105503274782       -2.31550700682815        5.06019765527827
H           18.61448732628095       -2.37308215692773        7.54107982505757
H           19.50200161501378        0.61607887082589       10.77234157134236
H           19.63782139403829        1.78602039081151        7.61627712629775
H           19.57300909285157        1.84817784419944        5.14740908454739
Fe          29.86983469676789       -0.04198861384013       -0.04796364342434
C           33.25467104594262       -0.15876838843516       -0.08772673511920
C           32.59466061130314       -0.22145989351990       -1.29774175417158
C           33.26177305919486       -0.29965089789741       -2.56253302882750
C           32.30455931753999       -0.19097854314174       -3.51348181683980
C           31.05148319376077       -0.05775928211034       -2.82776300999901
N           31.23997740694182       -0.10939478222822       -1.47290405801349
C           29.84208541940572        0.20596390419509       -3.46093869152031
C           28.64328235940649        0.34263506303839       -2.77451116203195
C           27.38256361239078        0.59356381752964       -3.40696160925423
C           26.43756730135388        0.51026159993147       -2.43991416426427
N           28.46576775973223        0.12619271805105       -1.42889007184005
C           27.11976080787950        0.19859321391558       -1.22359304217974
C           26.46011110056360       -0.07699585254343       -0.01961155284550
C           27.14173227851402       -0.33597227290870        1.17510100769723
C           26.48520050257144       -0.65157927644742        2.40447365301279
C           27.44689177206715       -0.70557877973615        3.35735411886411
C           28.68983448894109       -0.42002245085418        2.70495938780052
C           29.90339005701149       -0.28924110963467        3.36773830787444
C           29.90938257441646       -0.36256338698363        4.84618110628103
C           30.64087903039919       -1.35364235728698        5.50603768239976
C           30.63449976667367       -1.42205689081344        6.88704922296349
C           29.90095504458967       -0.49858693442370        7.63423319908850
C           29.92457945148473       -0.61377913692324        9.11244145235717
O           29.17491899316217        0.30851835492262        9.73451297315452
O           30.54825549208849       -1.44651250649336        9.71959353803405
C           29.17205473789164        0.49524135791813        6.98036731270228
C           29.17569106382391        0.55897779996673        5.59809466573240
C           31.10936526615914       -0.10022550935597        2.70060470421109
C           32.37612061639066        0.06305706122352        3.35378438348014
C           33.31828176661946        0.07962495417931        2.38137159760184
C           32.62485560800559       -0.05242686810525        1.13570842559245
N           31.27254144686310       -0.12603418475059        1.34200472838675
N           28.49127504959503       -0.25028387221820        1.35601932883761
C           29.82641881564042        0.34197727069102       -4.93714053699655
C           30.10516654465059       -0.75953620175496       -5.74945874660205
C           30.07048668727399       -0.63570233165062       -7.12634909653705
C           29.76081847783781        0.59190708066748       -7.71464949340537
C           29.72812302643846        0.67261577549507       -9.19498043139486
O           29.39060395304275        1.88516833156849       -9.65895478316895
O           29.97433960463867       -0.24796938119885       -9.93169719885892
C           29.48984443299064        1.69648840629091       -6.90668894227932
C           29.52120051755688        1.56968512837943       -5.52877716679059
H           34.33858746674748       -0.17777664134159       -0.10009638577054
H           34.32781955580481       -0.40513481267095       -2.68617503797903
H           32.42452128053272       -0.18387774508812       -4.58466403656187
H           27.24536439911787        0.79371522827096       -4.45695987266032
H           25.37173516187422        0.64089806657097       -2.53067322039416
H           25.42516385228586       -0.81340728930551        2.51136413343077
H           27.33484844915199       -0.92619033917842        4.40628651913734
H           31.19861428374871       -2.08109833908736        4.92740513757357
H           31.19445099443747       -2.19244241326793        7.40574928899671
H           29.24257874574282        0.16476819734188       10.69244736495231
H           28.60415574861566        1.21617497658659        7.55645484490198
H           28.61819321889719        1.33766871586432        5.08988429396914
H           32.51407967598878        0.15372854874907        4.41896179864570
H           34.38784426677893        0.17639015248495        2.47901522314423
H           30.33136451510330       -1.71656265035678       -5.29344250157480
H           30.27793064234017       -1.48768555390875       -7.76441549289568
H           29.39040746491360        1.85412818701983      -10.62944199780811
H           29.25462485299187        2.65235125033257       -7.35952818258812
H           29.31943407704410        2.42941042780623       -4.89996067342394
C           23.83705529191173       -0.08283883498604       -0.00079421551536
C           25.05538114132239       -0.08237574997555       -0.00876121439457
