116
 energy: -201.690451907140 gnorm: 0.000556066282 xtb: 6.5.1 (b24c23e)
Zn           9.79363363802817       -0.02533336540956       -0.00656346615290
C            6.38357244281447       -0.05854679415910       -0.00525413184650
C            7.01346967900122       -1.29159734678161        0.11239270094208
C            6.34016673262212       -2.55100319966564        0.26604056869874
C            7.29957669673719       -3.50425536481283        0.36844311827878
C            8.57199540409501       -2.83903154566172        0.26879774094256
N            8.36298635817331       -1.49938101277985        0.12022573209069
C            9.82429430938945       -3.46063439121591        0.34767185174843
C            9.83896937718785       -4.93456797310917        0.51084255215425
C           10.39446436912509       -5.53126577142282        1.64242084221541
C           10.38283214037924       -6.91247297373900        1.75402376385796
N            9.86672001696530       -7.71014533921101        0.82428107218425
C            9.33747409507098       -7.15004486646794       -0.25862982853774
C            9.29788573028123       -5.77900423061489       -0.45791800022358
C           11.06320754709506       -2.81309346247063        0.29054311338313
C           12.34285280445346       -3.46610395003752        0.32289629360141
C           13.28879069954867       -2.49774959371268        0.22425839921890
N           11.25645352865605       -1.46352844181821        0.16073171980656
C           12.59824723918479       -1.24562052565769        0.12290261756252
C           13.22977255890517        0.00796301240204       -0.00893787331893
C           12.57554503130225        1.25003132498559       -0.13702575879888
C           13.24208527880128        2.50852957187053       -0.30044961381467
C           12.27774049482761        3.45891748980891       -0.39748149029354
C           11.01089769471211        2.78993156673596       -0.28514085948256
N           11.22997663613608        1.44633043805675       -0.13632906142919
C            9.75893608852472        3.41146471733378       -0.34841861952401
C            9.74171299427515        4.88705519817243       -0.49434844619758
C            9.16766405030632        5.49847295889608       -1.60871361725994
C            9.17558208545706        6.88120311808039       -1.70119854336858
N            9.70521035616667        7.66681407949071       -0.76882555064709
C           10.25294117074400        7.09264071505822        0.29760269029887
C           10.29690729149225        5.71915299658000        0.47738526304670
C            8.51941958409528        2.76252511590975       -0.28602425957566
C            7.23463342452562        3.41091612009213       -0.30366788382190
C            6.29373636198530        2.43841119580889       -0.21052584876453
C            6.99083661645147        1.18563957227022       -0.12543610783997
N            8.33616820914481        1.41594905162399       -0.16853119563077
H            5.29803633358874       -0.06686173810749        0.00911093555333
H            5.26918407623399       -2.67655270445886        0.29768126799205
H            7.16264363417784       -4.56424347878673        0.51088252673642
H           10.81567469691136       -4.92026378857399        2.43189847073737
H           10.80552011369217       -7.39903399930800        2.62815050769456
H            8.92570968726996       -7.82753288729107       -1.00132885618800
H            8.86670669136234       -5.36845840259655       -1.36329312382114
H           12.49601240227052       -4.53060923688155        0.39742224870737
H           14.36084041562034       -2.61369895666998        0.21363844392221
H           14.31167208693364        2.63968038522811       -0.34171695898784
H           12.41089122829903        4.51845947302860       -0.54543749732871
H            8.73523572021439        4.89800606402582       -2.40027707497668
H            8.73780896932462        7.37919728989322       -2.56152605343117
H           10.67553777499949        7.76037351027802        1.04276938650077
H           10.74270150665014        5.29658243991049        1.37001236365334
H            7.07726681359192        4.47578207638805       -0.36598811563898
H            5.22073937974536        2.54839751221271       -0.19241871346015
Zn          28.41057878606211        0.01947273810951       -0.01321529764074
C           31.82072520726177        0.05368291327121       -0.02189125883890
C           31.19018231235863        1.26803611728113       -0.26433444287683
C           31.86266148963661        2.51881548070488       -0.47966738827887
C           30.90262947572626        3.46015329669548       -0.65823225171860
C           29.63072720491261        2.79323251499886       -0.56363567959845
N           29.84056559897449        1.46803847027524       -0.31829503872033
C           28.37803080695858        3.40960778678126       -0.67146520762351
C           28.36256219674799        4.86715564560116       -0.94459384144473
C           27.80458035415097        5.76738189852163       -0.03725563463013
C           27.81573220520442        7.12110788444526       -0.33330935360778
N           28.33345267224092        7.61335609654345       -1.45433040222599
C           28.86493929926003        6.76224805980836       -2.32588840270929
C           28.90538810721473        5.39275960950759       -2.11650746089897
C           27.13951022468121        2.77212366455723       -0.54095665209420
C           25.85962191399361        3.40494899332747       -0.70322987609213
C           24.91423506623224        2.44895795245335       -0.51733541950952
N           26.94702772517533        1.44308461758828       -0.27231854959029
C           25.60542864979971        1.22238629898011       -0.24753579280124
C           24.97433477910144       -0.01526334557899       -0.00743508979618
C           25.62913130655371       -1.24003486993293        0.23394648046797
C           24.96330064545517       -2.49139705588673        0.44703374406162
C           25.92819611165276       -3.42825038357084        0.63121918203381
C           27.19472814152509       -2.75533510422777        0.54104726309890
N           26.97487557215067       -1.42705063596179        0.29071352672165
C           28.44712919598281       -3.36808974737845        0.65895596004163
C           28.46529070646072       -4.82226810419498        0.94845498540485
C           29.03987703865426       -5.73087910157657        0.05989287679927
C           29.03301770791670       -7.08076388985880        0.37336494503074
N           28.50340534081820       -7.56185257327899        1.49368825287692
C           27.95502429671641       -6.70285790669707        2.34713870386377
C           27.91052704869510       -5.33640435268067        2.12014958064341
C           29.68627867787777       -2.72881150530037        0.52723866473703
C           30.97155527653688       -3.35425422019533        0.69551730289257
C           31.91188347712896       -2.39622984685969        0.50137771733290
C           31.21401107713088       -1.17254175474277        0.22193318408390
N           29.86875661551875       -1.40586058901464        0.24940319027278
H           32.90625820184243        0.06621429798606       -0.01090933901616
H           32.93352484633796        2.64919551926890       -0.48388415811799
H           31.03874301129531        4.51629310869876       -0.82753526691625
H           27.38175221303958        5.41278566254497        0.89522225819856
H           27.39117713993868        7.84114446757072        0.36009722300394
H           29.27830254836035        7.19403422556107       -3.23308439815878
H           29.33870107932798        4.73624686262743       -2.86180410811473
H           25.70600975700234        4.44482142168330       -0.94252733899442
H           23.84218696276643        2.55569000767757       -0.56380249242866
H           23.89376287623886       -2.62924238034859        0.44746530769545
H           25.79544333710004       -4.48466525538242        0.80025195246087
H           29.47185048774325       -5.38618021520746       -0.87217659403831
H           29.47135482015193       -7.80703099596377       -0.30509977909399
H           27.53250871288839       -7.12548407765813        3.25414377960260
H           27.46469119746344       -4.67291443012657        2.85167287713316
H           31.12984434256022       -4.39149174043251        0.94380747285028
H           32.98499389845615       -2.49613261164156        0.54826855901082
C           14.63485663236788        0.01689948808318       -0.02115456963475
C           15.85967428482324        0.01383783129621       -0.02710518880979
C           17.20229861411395        0.00836650329457       -0.03211741634362
C           18.43310905443771       -0.00194352536217       -0.03328282561071
C           19.77099096013340       -0.01208069804684       -0.03270845337969
C           21.00181403709901       -0.02254756308981       -0.02907992757523
C           22.34444839703428       -0.02623265976780       -0.02312924669456
C           23.56926700709382       -0.02762094869911       -0.01698748788840
