160
 energy: -298.464242683257 gnorm: 0.000374576997 xtb: 6.5.1 (b24c23e)
Cu          20.32777067736343       -0.02245156135609       -0.02247652002004
C           16.90260881404194       -0.03643231431964       -0.03431921875671
C           17.53881417538941       -0.90849713311427       -0.90616981963621
C           16.87204988667713       -1.80919345923346       -1.80626038588177
C           17.83730861690675       -2.48314154469041       -2.47959391185664
C           19.10148833207328       -1.99968676630949       -1.99644842547853
N           18.88961483106636       -1.04603474552721       -1.04372994636430
C           20.34316698957354       -2.43786305516369       -2.43400553147182
C           21.57807227091059       -1.99145622744637       -1.98797495169156
C           22.84425086375299       -2.46907273119315       -2.46510413201048
C           23.80404013166418       -1.78980272000930       -1.78702710024090
N           21.78479583423134       -1.03372165566555       -1.03151848387293
C           23.13013844538457       -0.89395592612861       -0.89213864111379
C           23.77651454152147       -0.00923265472505       -0.00967938747727
C           23.11687658953860        0.87011571598960        0.86827628826929
C           23.77725838817003        1.77148263049454        1.76768750519744
C           22.80729856118751        2.44267824632820        2.43930787621187
C           21.54837737657682        1.95485552646167        1.95336039841843
N           21.76950722274490        0.99903811478490        0.99821683430444
C           20.30680324829592        2.39119702411910        2.39076670182762
C           19.07180207034342        1.94330603181787        1.94423263510934
C           17.80040583837431        2.41670439081253        2.41832482601503
C           16.84535562162441        1.73556749307365        1.73770994768633
C           17.52565059506842        0.84037242614887        0.84226818933183
N           18.87430487882904        0.98844345938693        0.98963779717902
H           15.81755712521375       -0.04059799623284       -0.03832252526377
H           15.80116738052399       -1.90163388171966       -1.89871719059225
H           17.72053252589981       -3.24180577758170       -3.23765831055503
H           20.34929001264162       -3.20562623208070       -3.20097024472214
H           22.96851523862236       -3.22722106896880       -3.22225571375463
H           24.87519649649872       -1.87819825507399       -1.87553967078707
H           24.84703262296029        1.86857032342259        1.86355638677865
H           22.92013126311222        3.20167118706637        3.19740545105024
H           20.30133178202698        3.15877993805345        3.15791803869272
H           17.67220467933060        3.17413574273622        3.17577612945253
H           15.77313971557304        1.81967606704184        1.82234104229849
Cu          68.58330511810526        0.00434856796660       -0.01271871773247
C           72.00825278738218        0.03183072838390       -0.00666661461386
C           71.36880533563473        1.26268718873480       -0.04444267920623
C           72.03221073174048        2.53728134108134       -0.08132747301822
C           71.06446544858952        3.48699710786826       -0.10873916248606
C           69.80205537796721        2.80046668106884       -0.08863719433710
N           70.01749332887169        1.45355264794352       -0.05070763738430
C           68.55879959181054        3.41624932561788       -0.10346090722482
C           67.32561178848485        2.78207607093988       -0.08395752475641
C           66.05756766212573        3.45365722213122       -0.09932756933868
C           65.10037946775495        2.49171227849826       -0.07400501014475
N           67.12264056313040        1.42856524928629       -0.04905723728979
C           65.77765449124493        1.22753507036661       -0.04326242069598
C           65.13497173497427       -0.02325914181784       -0.01773529351191
C           65.79744632479094       -1.26357944424988        0.00984119339366
C           65.14039643175308       -2.53842537517945        0.03854985311158
C           66.11278709458701       -3.48492153057655        0.06710775346684
C           67.36997426592661       -2.79312084455000        0.05567526834269
N           67.14545954882290       -1.44305346565469        0.01979327399421
C           68.61312589545155       -3.40742313827848        0.07919275393787
C           69.84640070815237       -2.77178505587502        0.06829768201415
C           71.11958603003589       -3.43800306126416        0.09239925671338
C           72.07207726508554       -2.47290539646407        0.06810781184467
C           71.38846576474100       -1.20909945240063        0.02907552230901
N           70.04036945228123       -1.42159628281886        0.03091118249466
H           73.09328363797488        0.04051401333500       -0.00492416736413
H           73.10274613307820        2.67078713378117       -0.08514687947884
H           71.17839982941672        4.55934737281173       -0.13966333296657
H           68.54973664699450        4.50104107956182       -0.13290848516521
H           65.93046753356960        4.52446355756864       -0.12638129340290
H           64.02889130064509        2.61392112354824       -0.07622831617625
H           64.07098138185151       -2.67768177546837        0.03738681672516
H           66.00278620704137       -4.55762635075591        0.09400281059888
H           68.62138944745801       -4.49222129073522        0.10869372526735
H           71.25059855769584       -4.50839091997331        0.12367600829527
H           73.14459800290155       -2.58923377333902        0.07536146915261
C           28.97965361413216        0.00435227462991        0.00318658247260
C           27.75136935581461        0.00227829568618        0.00252210843897
C           26.40628490329821        0.00012120537364       -0.00148092214703
C           25.18248101304458       -0.00261733465150       -0.00602260678319
C           30.32459989215032        0.00405734956806        0.00385342217657
C           31.54861407510832        0.00301157771542        0.00346025473194
C           45.06925250194689       -0.02673267611239       -0.02663027304466
C           43.84069570174715       -0.02355206478293       -0.02428611363659
C           42.49584072487268       -0.02069003692534       -0.02117417149373
C           41.27172260212854       -0.01823673949865       -0.01687909343413
C           46.41412418914399       -0.03066315683643       -0.02685208751894
C           47.63823962776902       -0.03494378334943       -0.02655638861782
C           61.15904081381253       -0.04715068405124       -0.02318427135621
C           59.93103049632521       -0.05103028258363       -0.02366506833096
C           58.58543591554646       -0.05347302562843       -0.02418210515071
C           57.36171405643928       -0.05403463156477       -0.02417045202284
C           62.50475496487217       -0.04087141791419       -0.02160559049607
C           63.72821258806346       -0.03396903989295       -0.01996971423842
Cu          36.40998364616727       -0.00826452360341       -0.00542536872088
C           32.95391814505143       -0.00067658834786        0.00200100070807
C           33.61172254618835        0.92604780651814        0.83223752046440
C           32.94988057303505        1.87412063459928        1.68100802995708
C           33.91925121239868        2.58243774819233        2.31488813765396
C           35.17824320696685        2.07024069451844        1.85579897111836
N           34.95835402426470        1.06346671282621        0.95488621447739
C           36.42039866902306        2.53072410579525        2.26664671812629
C           37.65870934374899        2.06579575795937        1.84915513116922
C           38.92181823440049        2.57354273300157        2.30171561741216
C           39.88541416287946        1.86134757935322        1.66337299927808
N           37.87044149646277        1.05801820513179        0.94735970026702
C           39.21595298095228        0.91516786447848        0.81851254129916
C           39.86644237443478       -0.01558759171926       -0.01323840000941
C           39.20830452949469       -0.94393281138921       -0.84164206370722
C           39.86995161872553       -1.89298904839031       -1.68942264648738
C           38.90049008592818       -2.60233351101730       -2.32202516871950
C           37.64160358707325       -2.08926954350191       -1.86375614842667
N           37.86163564218996       -1.08135068559600       -0.96410911805515
C           36.39948762848577       -2.54952171127864       -2.27504106747221
C           35.16117958552343       -2.08324238113619       -1.85921236903292
C           33.89799937153366       -2.58992987892816       -2.31284087364186
C           32.93450172079287       -1.87634682360636       -1.67594442709290
C           33.60414968348834       -0.93095565080939       -0.83030193179607
N           34.94961157117732       -1.07480641851148       -0.95815322952536
H           31.87997208562801        1.97496791859602        1.77154982420200
H           33.80528741322397        3.38163450776760        3.03030405280795
H           36.42377751885304        3.33960253715503        2.99042615408088
H           39.04223750083943        3.37252555627218        3.01630574665213
H           40.95610249753837        1.95822234612427        1.74871234072811
H           40.93982143505995       -1.99403383252427       -1.78001773403633
H           39.01428827223452       -3.40261661125171       -3.03624481105972
H           36.39616844031165       -3.35909365974230       -2.99804246148138
H           33.77742041439114       -3.38914660834930       -3.02714488092057
H           31.86379656249981       -1.97219107063952       -1.76233423729786
Cu          52.49987309903787       -0.04608640243835       -0.02452141031239
C           49.04356805161186       -0.03786948995226       -0.02708414894140
C           49.69953341123404        0.90719312871725        0.78391243188037
C           49.03562521490925        1.87351819524499        1.61019167354589
C           50.00336993021067        2.59725057521439        2.22890709049494
C           51.26351612049174        2.07632075856096        1.78301908938195
N           51.04587682007993        1.04855698839464        0.90552111945124
C           52.50448356816431        2.54922521289434        2.18311206184163
C           53.74385498568449        2.07677399019313        1.77738311934438
C           55.00592517767431        2.59848496744764        2.21708376791140
C           55.97104015025085        1.87138765842459        1.59831841381394
N           53.95761633628162        1.04633067181485        0.90233561362599
C           55.30358869135745        0.90209995876826        0.77821868197784
C           55.95559358500166       -0.05268032157955       -0.02373147331326
C           55.30040054260885       -1.00561166864806       -0.82520423273034
C           55.96450748919894       -1.97812659780735       -1.64418117613698
C           54.99688063198946       -2.70200817545658       -2.26281223172355
C           53.73659410734191       -2.17495775135047       -1.82428836467905
N           53.95392782843098       -1.14485086830782       -0.94974459070500
C           52.49556875616263       -2.64216991718653       -2.23110380956029
C           51.25621047303974       -2.16325532097691       -1.83307891558513
C           49.99427461127647       -2.67847545565316       -2.28057515852770
C           49.02900561141341       -1.94972626176614       -1.66385258788544
C           49.69619602319162       -0.98615473850072       -0.83699799554422
N           51.04206208282279       -1.13396503139615       -0.95649602618430
H           47.96551700933569        1.97523698176331        1.69713991890371
H           49.88766705868487        3.41241720754496        2.92577570476743
H           52.50594117986557        3.37555272289033        2.88689670458291
H           55.12461054321417        3.41609572284514        2.91058753593058
H           57.04152610549957        1.97203763304045        1.68193409356791
H           57.03465372482351       -2.08297817840624       -1.72707077710465
H           55.11274449640963       -3.52065227992001       -2.95557761236399
H           52.49418586314308       -3.46895919139334       -2.93435419583066
H           49.87578557587943       -3.49347472803849       -2.97717778888457
H           47.95855379489665       -2.04629265436499       -1.75246319917239
