286
 energy: -483.729128067476 gnorm: 0.000750724089 xtb: 6.5.1 (b24c23e)
Ni          46.42931862373190        0.04149982179858       -0.04139292916346
C           43.04357233293071        0.13257573963413       -0.12398117262840
C           43.69082006835794        0.88985930615141        0.83088810727605
C           43.01558726478397        1.67187417265553        1.82001687540462
C           43.97112493256789        2.35683574159427        2.49242810714434
C           45.22852891198092        2.00704063375241        1.89997879279132
N           45.04958087497263        1.06810005729163        0.91513609259760
C           46.43929196580718        2.60646732364794        2.23004411873471
C           46.44445149378139        3.71302483543791        3.21228337446326
C           45.68951711520484        4.86868665908530        2.99140122627476
C           45.70033514742157        5.90539733812756        3.90486298089004
C           46.46353247950920        5.81445325410536        5.07560597880740
N           46.39806162430300        6.85494992950025        5.98961075850074
C           47.48667404238908        7.05137207381499        6.93763651421900
C           47.20789140228263        4.65430385698272        5.30892290420037
C           47.20149407257017        3.62600519017057        4.38216680344186
C           47.64371518674749        2.20873423182997        1.66213197964449
C           48.89704784908729        2.85305557718897        1.91164589148252
C           49.84764371293993        2.12002770562489        1.28201104734388
N           47.82159700103864        1.11776829918097        0.84107373995120
C           49.17250694325618        1.03672242163396        0.64276033666935
C           49.83668566581667       -0.01074823090142       -0.00341611020405
C           49.15483870735483       -1.04582744751939       -0.65154327583790
C           49.80988195111986       -2.16143382512297       -1.25498050752290
C           48.84941789762269       -2.88348154430112       -1.88239541019007
C           47.61146830730417       -2.19618527783425       -1.67388904476124
N           47.80611006801906       -1.09260274516713       -0.87307394814776
C           46.41016199569378       -2.56109092728206       -2.26950365548129
C           46.39865628718123       -3.69087753777457       -3.22481415503422
C           47.19747396430822       -3.66794282833746       -4.36970132429813
C           47.18680634760373       -4.71826548051326       -5.27132294662940
C           46.38110997643144       -5.83655263633720       -5.03720168352534
N           46.29762324340091       -6.89501028613090       -5.92862393886397
C           47.40678843479475       -7.16525805221956       -6.83358630192697
C           45.57488935920094       -5.86255151858795       -3.89230430877378
C           45.58216618856930       -4.80399242014874       -3.00420466747370
C           45.21700273191055       -1.89770393857179       -2.00285807423351
C           43.97252014282356       -2.19159430377092       -2.65026262689995
C           43.02624861851375       -1.43405611146397       -2.04600983374758
C           43.69458212496005       -0.66994736585357       -1.03830940880693
N           45.04331221504546       -0.92747695548407       -1.04831841123759
H           41.96061005211250        0.16473635907467       -0.15294879985087
H           41.94735663816235        1.68036937433254        1.96823247040520
H           43.84763249562990        3.03738916525916        3.31915644511701
H           45.10854593712467        4.96141529766888        2.08027939098532
H           45.11648684462368        6.80032382048758        3.71688707143752
H           46.08853193517096        7.72426184916409        5.57196572157719
H           48.45846475204286        7.09143778493363        6.43248716793978
H           47.49565416379535        6.24258290346605        7.66945553732464
H           47.31267902775118        7.99215091534686        7.45982150860378
H           47.79187397894518        4.54639011985472        6.21466373846337
H           47.77608408711805        2.72736226103990        4.57905310194743
H           49.02338539526673        3.75438311512293        2.48898434534517
H           50.91255505918159        2.28461554834612        1.24671691913294
H           50.86884414754602       -2.35514596735559       -1.19615910163024
H           48.96017107510276       -3.80231685729252       -2.43477120997416
H           47.81905508844867       -2.80152066182076       -4.56821218834644
H           47.80520699355897       -4.65997289172283       -6.15858413126799
H           45.93182305896474       -7.73825141891143       -5.50320188951665
H           47.47887600751847       -6.37588067669992       -7.58291834906469
H           47.20586097543078       -8.10932313437773       -7.33993936737879
H           48.35811234752855       -7.23842010462901       -6.29430776862572
H           44.94280046614087       -6.72413505356160       -3.70454678921541
H           44.96587437095189       -4.84619048831922       -2.11274885505421
H           43.85132710122490       -2.88556949166690       -3.46612445200045
H           41.96831308462131       -1.38459043428470       -2.24968573205514
Ni         102.11856199954624        0.01676021552852       -0.02208353185546
C          105.50332276950147        0.09485923875901       -0.15556339130774
C          104.85752555046942       -1.00501983927700       -0.68215264769181
C          105.53419508859487       -2.13591999408997       -1.23815039293004
C          104.57874653683594       -2.94439727998521       -1.75567682466781
C          103.31970968209394       -2.29723034609770       -1.53111834456739
N          103.49819627455767       -1.13256199827727       -0.82757750455893
C          102.10699890174068       -2.75589204989348       -2.03427387579421
C          102.10224598408369       -3.95098187439906       -2.90668579263592
C          102.84468140577084       -3.97301166203307       -4.09099196397936
C          102.83386669272561       -5.08471330029409       -4.91149116543747
C          102.08339738442135       -6.21591887849246       -4.56720949687902
N          102.14821596590710       -7.32815382942380       -5.39236036283855
C          101.06680514846821       -8.30413267353386       -5.37322934116771
C          101.35227215395737       -6.20527135943750       -3.37564176485274
C          101.35835472607461       -5.08228451175992       -2.56615696100905
C          100.90087200826555       -2.12448464247841       -1.75534926996245
C           99.64422733865432       -2.51667876099662       -2.31687897381316
C           98.69435993703770       -1.75001796285173       -1.72751015922757
N          100.72498017508697       -1.08817650809607       -0.86586953585394
C           99.37305574199381       -0.88630763713880       -0.81572006433801
C           98.71204623728114       -0.03105606225770        0.07169423480529
C           99.39723988034889        0.83149082620282        0.93361858019110
C           98.74686346210082        1.66086773136575        1.89632108832496
C           99.70779107431636        2.43981833282301        2.45077697562601
C          100.94107365515109        2.09454845953237        1.81193219414770
N          100.74418383336636        1.06777390905753        0.91534250352723
C          102.13929693403645        2.76672986533138        2.02103563964624
C          102.14836259668212        3.95334133731018        2.90463756741302
C          101.33398783674595        5.05379576741349        2.63003810224196
C          101.34037563858502        6.17097698218290        3.44723914278851
C          102.15776030323649        6.20697209566866        4.58088002639038
N          102.23665224096301        7.31698831629059        5.40760735634390
C          101.11632865162669        8.24562213648704        5.47684378174467
C          102.97969286568058        5.10746606145997        4.85830836569894
C          102.97623604530411        4.00138219355991        4.03004618921076
C          103.32974476704476        2.36677210959937        1.42311256480375
C          104.57145363879103        3.07030326172062        1.55526223423049
C          105.51741071634916        2.31646617489166        0.94590388193167
C          104.85127692333326        1.16027099727574        0.43069178973995
N          103.50412045705860        1.22045595576934        0.68934105284843
H          106.58586144164053        0.12145341556287       -0.20126915151675
H          106.60331978444066       -2.27700243527209       -1.22300021025891
H          104.70324794098416       -3.89723856088536       -2.24403075640253
H          103.41557207813025       -3.09732236587980       -4.37999646119410
H          103.40760956066343       -5.08513490573950       -5.83231642096418
H          102.44690049978311       -7.10121425105338       -6.33320412291079
H          100.08983618093508       -7.82550613063803       -5.50594548829792
H          101.07327162882308       -8.85095873469280       -4.42943135442409
H          101.23592801233725       -9.00998100969605       -6.18636400435237
H          100.77886504428901       -7.07269721625611       -3.07259591257108
H          100.79409414845532       -5.08975008851561       -1.63985722898791
H           99.51525118833230       -3.27663300507475       -3.07019890885792
H           97.62772727188829       -1.75898587248775       -1.88431455451057
H           97.69053266772052        1.63773978194530        2.11083064094526
H           99.60035390935749        3.18024505275911        3.22658199504004
H          100.70312977346356        5.04241350064716        1.74779904897942
H          100.70946175712432        7.01440339648518        3.19502847671399
H          102.61539088651901        7.09956501663010        6.32145813657179
H          101.02702829208654        8.79450897866856        4.53846339544318
H          101.31692619690128        8.95618084182214        6.27863407170565
H          100.17371089961875        7.72510186102987        5.68111715804864
H          103.62084843414817        5.12820591613547        5.73329502284422
H          103.60448917112966        3.14992696362598        4.26796915687489
H          104.69130680001470        4.02155563816298        2.04786809221028
H          106.57368328657462        2.50934743831713        0.84467113205402
C           51.24037179635349       -0.02743165602952        0.00548073333313
C           52.46485256189992       -0.03615836598064        0.01093631192810
C           53.80761007611572       -0.04766322969718        0.01688425212134
C           55.03830567697059       -0.05422101002633        0.02391112103666
C           56.37632832088376       -0.05976090646717        0.02816321787598
C           57.60711660075951       -0.06074377266159        0.03095568346456
C           58.94979747770208       -0.05715294205715        0.02738469132417
C           60.17442033302517       -0.05118580854239        0.01969530986350
C           69.81164700346635        0.02593894137068       -0.02287696979143
C           71.03626988686142        0.01693077411253       -0.00963546339888
C           72.37885611388614        0.00927857416765        0.00100693470293
C           73.60962443106474       -0.00081360996335        0.00938476718821
C           74.94752746056987       -0.00416587953909        0.01685467872769
C           76.17837663977353       -0.00647257797264        0.01760932217517
C           77.52097206442224       -0.00643092436362        0.01899487828108
C           78.74571427610485       -0.00394710767056        0.01549517072336
C           88.37454687111476       -0.00186226987197        0.08561818258883
C           89.59917714520024       -0.01156841305803        0.10273089394136
C           90.94173302477731       -0.02158934276182        0.11607370587027
C           92.17250052690792       -0.03041961704471        0.12176495513444
C           93.51052682719622       -0.03286996162367        0.12686998974614
C           94.74123935216508       -0.03798944573875        0.12415296100341
C           96.08402502705738       -0.03987197608996        0.11365261297073
C           97.30849914821229       -0.03904643600826        0.09848448717104
Ni          64.99272589471883        0.01759442901698       -0.03637369600928
C           61.57788885621151       -0.03610357517238        0.00967049693190
C           62.25851398219695       -1.09258055964425       -0.60385594187990
C           61.59205593134281       -2.19204761232140       -1.22388976977733
C           62.54937059947411       -2.93274674591999       -1.83325529748907
C           63.80020127395353       -2.28901822376913       -1.57245609798287
N           63.61058261703808       -1.16832864486191       -0.79479606506750
C           65.00584800178510       -2.68839647653200       -2.13522951407262
C           65.01172904459415       -3.85605831381016       -3.04905637622340
C           64.68443978940860       -5.13021918634190       -2.57913044904886
C           64.69294248670725       -6.21942146507219       -3.43002007227908
C           65.01863842324624       -6.06307574928906       -4.78294357090812
N           65.06077397290737       -7.19228199695402       -5.58674520625656
C           64.91579446442300       -7.05633889632308       -7.02987065349495
C           65.35286127458903       -4.79065879588482       -5.25546272822733
C           65.34877079382969       -3.70601090737167       -4.39457399493238
C           66.20802405330674       -2.04471652961528       -1.87168611995979
C           67.46682589209789       -2.46319963416222       -2.40817282596749
C           68.41868215524120       -1.70384073257278       -1.81371800818477
N           66.38751654663511       -1.01928669520412       -0.96977429634238
C           67.74018706401974       -0.82783188568342       -0.91372188471612
C           68.40816603656775        0.03302569966930       -0.03691201273668
C           67.73103159400611        0.90276085467700        0.82390973635220
C           68.39691003544146        1.76951840877883        1.74172231962933
C           67.43807699398320        2.53488283360545        2.31824172146189
C           66.19022993355762        2.13809828809696        1.74227308896755
N           66.37866807232456        1.10288636870480        0.85420712704975
C           64.97843782818919        2.76043635439962        2.01631933790826
C           64.97278707093328        3.94661082552625        2.90159750681652
C           64.23509599539447        3.94916054698464        4.08688159007979
C           64.23040822945717        5.05118732475647        4.92454544138064
C           64.96829062022266        6.19054678611111        4.58988006005462
N           64.95464337142852        7.34141805744285        5.36243262007415
C           64.64356492347646        7.25420944490213        6.78291145876173
C           65.69848836276532        6.19770893333269        3.39472874395195
C           65.70529044438354        5.08971292226842        2.56913562644204
C           63.77121519833014        2.30745515261399        1.49844008247479
C           62.51479499134311        2.95342461099554        1.72351915302413
C           61.56289585514085        2.16174535280810        1.17166624276247
C           62.24187129617612        1.04508491855976        0.59813585781722
N           63.59454293675366        1.15571607991109        0.76471999086865
H           60.52632962118021       -2.35338388777446       -1.20241716648459
H           62.42572247205334       -3.82623095308480       -2.42297263175918
H           64.43897699086210       -5.26727129641271       -1.53170600656258
H           64.44709360965143       -7.20575296585097       -3.05090846707900
H           64.51356458518229       -7.95891085102640       -5.21427965347086
H           64.02440941049255       -6.47524404948373       -7.29261910184849
H           65.79753651846640       -6.57081224797354       -7.45013107939370
H           64.83240333866512       -8.05634012472544       -7.45542869081291
H           65.61814940276480       -4.63969768216385       -6.29460762286330
H           65.59426243603072       -2.72083104739002       -4.77610968058659
H           67.59846567007118       -3.25184755187855       -3.13065886247392
H           69.48745446245418       -1.73206569601769       -1.95208273021219
H           69.46147088012759        1.78062849387251        1.91155703914607
H           67.55617716948151        3.29649862765096        3.07157986208110
H           63.67327737214021        3.06451630747312        4.36655143398387
H           63.64979197750687        5.01826209995428        5.83821052564946
H           65.74397315935745        7.94822993934232        5.17636020588277
H           65.27047912861482        6.51022173978497        7.28759684278440
H           64.81908724306240        8.23412469891223        7.22673063963364
H           63.59383193887366        6.99188337651781        6.92053426889524
H           66.26147245714260        7.08322281095964        3.11915602026259
H           66.26830260489106        5.11261873098393        1.64248860436891
H           62.38632650067843        3.89401380674458        2.23359517069659
H           60.49525924558375        2.30901972449769        1.14553028465331
Ni          83.56013733768960        0.02627682994898        0.01237102184939
C           80.14884766755699        0.00544299417267        0.01235685684827
C           80.83050056661658       -1.07258623405083       -0.56215896914409
C           80.17511526323409       -2.21521747314717       -1.11153681930261
C           81.13515321641624       -2.96482085691698       -1.70726842129996
C           82.37326167646130       -2.27119599256466       -1.52686852771089
N           82.17980844702950       -1.13249794236431       -0.77781441211550
C           83.57702575174571       -2.66549931024890       -2.09952789547271
C           83.58144075522947       -3.82215552836622       -3.02186140869552
C           84.37604598521334       -4.94258525205331       -2.76181768220866
C           84.37881280753460       -6.02226867335017       -3.62392235507382
C           83.59531569123737       -6.00875661519086       -4.78491929948911
N           83.59629334316713       -7.13346040938675       -5.59451153617509
C           83.20628166390189       -7.02017339433406       -6.99329029347424
C           82.79443362912579       -4.89297130510609       -5.04656157794357
C           82.79009738825594       -3.81989910283092       -4.17222040857550
C           84.77684169093679       -2.01561596593039       -1.83378272513861
C           86.02607531954278       -2.35824979251265       -2.44085135562352
C           86.97846454690058       -1.61533512761028       -1.82457191119175
N           84.95644844926017       -1.02431767227789       -0.89546710194551
C           86.30651576281187       -0.80992573259737       -0.85698043743494
C           86.97161623652252        0.00891705481541        0.06209364199106
C           86.28765200640876        0.84563034107186        0.95044112761033
C           86.94014402903227        1.66635137583763        1.91863277906912
C           85.98034692799452        2.44212954704002        2.48057009545777
C           84.74551362879622        2.09728535985407        1.84623231327663
N           84.93997033932996        1.07892974772495        0.94071856018794
C           83.54383215556147        2.75982106707635        2.06952136272212
C           83.53966646211995        3.94657729054762        2.95300396693688
C           82.73909939845041        3.98471910809129        4.09623621620312
C           82.73644357592362        5.08833620642554        4.93179901875208
C           83.53966210784112        6.19407878670843        4.63713401307823
N           83.53408447116725        7.34674039925886        5.40695648273214
C           83.14133525841035        7.27845541161883        6.80806141243505
C           84.33322568666087        6.16635972423102        3.48334469582071
C           84.33771445445284        5.05645611248497        2.66050014275612
C           82.34651462866967        2.34419914218541        1.49915970756116
C           81.10027000432208        3.02718381897684        1.66363523898186
C           80.14756379782817        2.24657286252956        1.09663097962251
C           80.81647209058092        1.09954180715749        0.57343362082996
N           82.16534594848599        1.18318490618761        0.78133771280584
H           79.11588565704295       -2.40473721544527       -1.04509600047499
H           81.02413077156619       -3.90691470769101       -2.21880993218422
H           84.97995618607857       -4.97213598122367       -1.86150544276487
H           84.99060945212088       -6.89074819933338       -3.40376372699578
H           84.41987383200085       -7.70901573667612       -5.46756778827022
H           82.14129610101978       -6.79688843169320       -7.06760234937452
H           83.77568106304206       -6.23813032721659       -7.50849617156399
H           83.39559584366623       -7.97981033881192       -7.47423940997394
H           82.17196137987192       -4.85576078254999       -5.93204260783030
H           82.17827749431189       -2.95269812992053       -4.39596462264517
H           86.14988980235722       -3.07309161710608       -3.23788122794008
H           88.04208631688869       -1.60280053221917       -2.00034834109672
H           87.99747305550240        1.64393049402582        2.12816810899152
H           86.08955286464615        3.17929416576546        3.25923499995450
H           82.12563714399323        3.12578725040936        4.34590882765412
H           82.10648145181787        5.08294675817312        5.81276557498972
H           84.35807862226096        7.91808093241486        5.26401032573731
H           83.70554708777598        6.50913780074954        7.34751341106095
H           83.33561647128302        8.25116348020749        7.25987201906382
H           82.07496332100789        7.06355829141808        6.88753392269340
H           84.94742104245290        7.02634020854802        3.23794741325425
H           84.95076464804967        5.05259260799908        1.76588839240517
H           80.97862085031734        3.98238791787862        2.14769872384457
H           79.08553319102441        2.41972988123747        1.03017048157001
