446
 energy: -741.908434400905 gnorm: 0.000542063529 xtb: 6.5.1 (b24c23e)
C           91.40500081476191       -0.01897425159960        0.10265613221609
C           92.01020601711735       -0.88479174930553        1.00486060277696
C           91.35420435875483       -1.78307848632789        1.89206567911945
C           92.31294975047616       -2.44093524804561        2.61081474365882
C           93.58539665723275       -1.95572363979265        2.19559472158958
N           93.35202378325177       -1.02950505896884        1.21837412034591
C           94.84637098338605       -2.33867533544271        2.66905223888960
C           94.87716259435912       -3.34014739377852        3.76053728090567
C           95.54313579905482       -4.55649040532489        3.58812534153279
C           95.57253111831288       -5.49952567900338        4.59969167003497
C           94.94495031640839       -5.23819700860824        5.82049502227118
N           94.93944146560506       -6.19462578173258        6.82102109906240
C           94.27298746766425       -4.02637875580680        5.99981595337227
C           94.24037823225805       -3.09260260568762        4.97914302531794
C           96.06150034093699       -1.84517808300889        2.18567490504260
C           97.35559416832839       -2.18913962516161        2.74596486177659
C           98.27755042146842       -1.52859054782487        2.01452076563621
N           96.21835140431851       -0.97447869886365        1.15049227203501
C           97.54520698238400       -0.77666329087046        1.01473477420773
C           98.18522079727035        0.01612034869417        0.04026309345545
C           97.55319644853945        0.80617296856518       -0.93918344353896
C           98.20126302596874        1.56931096696234       -1.94560441056764
C           97.23803767495106        2.21224768271192       -2.67356247951055
C           95.97139360067837        1.86926037430943       -2.12570884073390
N           96.21359664496444        1.00705979517381       -1.08850649392146
C           94.71224920639324        2.30461561323441       -2.55528631657084
C           94.68415483596728        3.28191571495890       -3.66760493369571
C           94.00844647250514        2.99017808983246       -4.85547723451910
C           93.98278739376899        3.89790531239288       -5.89910410287085
C           94.62389416118103        5.13280219521712       -5.77067251329193
N           94.63336942734914        6.02766531919294       -6.82664310433766
C           95.30551129077145        5.43109251836704       -4.58799948135938
C           95.33439681564539        4.51349164917809       -3.55295584857959
C           93.49570306137537        1.88145839633399       -2.00713951790874
C           92.19449518785574        2.38852245043014       -2.41308583017134
C           91.27931705250889        1.73310323894850       -1.67020804517106
C           92.02072709706535        0.83631359758964       -0.80195574187548
N           93.35236525068623        0.96154598089766       -1.02373968088092
H           90.31953105187131       -0.01884554991359        0.11135522558590
H           90.28484216719789       -1.90701339935154        1.95657457783712
H           92.15716396368467       -3.20318069877410        3.35692471865928
H           94.08045113738483       -0.52897046340816        0.72023926310299
H           96.02492409558035       -4.77043797444935        2.64037957886234
H           96.08361469965583       -6.44423030008980        4.44946932135218
H           94.77564978777700       -5.83900090017511        7.74933485677421
H           95.68671664698712       -6.86845887868697        6.76953252340695
H           93.78160370031546       -3.81873020780912        6.94416392557028
H           93.73459564244921       -2.14584065839890        5.13508278359797
H           97.51548058310340       -2.83413252123382        3.59484984400586
H           99.35016897745818       -1.52781585478934        2.12583843999723
H           99.26875634928604        1.60986840380979       -2.09110368262937
H           97.38922597829956        2.85800308746578       -3.52311788763053
H           95.48896148052009        0.57820431521503       -0.52226987163915
H           93.51753144075258        2.02966963143973       -4.96749253201927
H           93.46468536373709        3.65462568507210       -6.82033590234380
H           93.88110794396891        5.91441789065724       -7.48725615009298
H           94.80931078809778        6.98618184973666       -6.57082378562252
H           95.80754465711190        6.38676509536401       -4.48318506258113
H           95.84815034768367        4.76210326409220       -2.63062981591104
H           92.02822742274836        3.15328695855160       -3.15477443723408
H           90.20504355788815        1.83296392549467       -1.67923866674056
C          178.83674432709449        0.04568827182671       -0.09218600339365
C          178.23240269840136        0.68492436020780       -1.16735739814387
C          178.88952505516355        1.29619718870200       -2.27140067401172
C          177.93167756199600        1.81264625536996       -3.09865025559191
C          176.65870100430354        1.54365673508881       -2.52064805588403
N          176.89084151461745        0.85370397529669       -1.36427609943474
C          175.39843166723520        1.88899473836034       -3.02400752554475
C          175.37199350386808        2.67143269083678       -4.28222808219062
C          174.72256948077660        2.17565682971199       -5.41564568569220
C          174.69564434566612        2.90183701398268       -6.59283527463074
C          175.30913596039588        4.15554926666151       -6.65772361941876
N          175.31616621492537        4.86868660037348       -7.84416420318174
C          175.96615229726760        4.65599448780586       -5.53079632218412
C          175.99635798839927        3.91879648602700       -4.36022430703189
C          174.18177532338009        1.55212735940556       -2.42450440495828
C          172.88714134417532        1.97826673596349       -2.92377897253905
C          171.96421295434661        1.46023384383777       -2.08654311693816
N          174.02377924250118        0.80934713768554       -1.29392252919907
C          172.69648757729090        0.72906616689043       -1.07129148205750
C          172.05562529268343        0.04700050044850       -0.01672615687496
C          172.68578390329216       -0.64385029071561        1.03603639695419
C          172.03468853934217       -1.36651233657233        2.07013536089506
C          172.99677871705211       -1.89211379176562        2.88799957915326
C          174.26615260506014       -1.49600945620505        2.38388050731962
N          174.02590582668907       -0.75049357001070        1.25933053833471
C          175.52561429117958       -1.81445769751347        2.90483361672308
C          175.55356925961581       -2.61389234330575        4.15142493606033
C          176.19512710854454       -3.85484960391973        4.18517699980395
C          176.21965557719480       -4.61023432059812        5.34384365820929
C          175.61209165140579       -4.13025443811865        6.50697273700640
N          175.60052418723100       -4.90024531172626        7.65722925583753
C          174.96510049623473       -2.89211170094593        6.48109625747913
C          174.93686809424500       -2.14752929705331        5.31524557877405
C          176.74355447150606       -1.43344100168306        2.32955637177593
C          178.04608859696000       -1.71034462988754        2.91419017431162
C          178.96222275220177       -1.19048238953978        2.07195292540560
C          178.22040810643625       -0.58647529334348        0.97985884061784
N          176.88764475880569       -0.74303728298474        1.17357739466927
H          179.92222677333228        0.04448166103884       -0.09941429180018
H          179.95897651181542        1.32365321899446       -2.40769239480504
H          178.08806999426906        2.32599273870130       -4.03353195616149
H          176.16184420807872        0.51066129765214       -0.74768453870230
H          174.25162369015047        1.19957686824527       -5.37596452158643
H          174.19699895648935        2.50154650048145       -7.46883046377844
H          175.46772873640953        5.85969538768937       -7.74381965543170
H          174.57568229059430        4.63376784519595       -8.48576096272121
H          176.44737977221698        5.62694311267014       -5.57587144147650
H          176.49036105302542        4.32448661712295       -3.48394572870180
H          172.72708363804128        2.60310290471509       -3.78755119597299
H          170.89099726645057        1.55835675963729       -2.12468832959139
H          170.96588820982754       -1.47294283109382        2.16331520126067
H          172.84281739107300       -2.51083234238483        3.75694099087177
H          174.75227697892228       -0.35156723578709        0.67374852369371
H          176.65998144255971       -4.23929175489963        3.28392145437341
H          176.71073949532339       -5.57719636477787        5.35367751130805
H          176.33414887055380       -5.58837565487294        7.71589535961176
H          175.45547289275481       -4.38664514700375        8.51181211808576
H          174.48917842802695       -2.51535793797373        7.37993094061509
H          174.45015915906365       -1.17824619885756        5.31001784872282
H          178.21266858911684       -2.21908258594060        3.85016740780857
H          180.03761336202479       -1.19146813510735        2.15940858990983
C          100.81348096660146        0.03904566175348        0.02319661579867
C           99.59107852082479        0.02623642529050        0.03199380045735
C          102.16259363675799        0.04765616328111        0.01919554412968
C          103.38513958677679        0.05502570786345        0.01235420526975
C          114.26598292329811        0.08390595631673       -0.00428056627457
C          113.04291478653451        0.07302467993206        0.00154525676716
C          115.61402822979457        0.09295271078466       -0.00417686376463
C          116.83705561775373        0.10135600708065       -0.00945745827698
C          127.71914375779757        0.08973577763481        0.01768166055605
C          126.49601801968053        0.09504474169225        0.02075995695338
C          129.06716835214655        0.08830572937512        0.01784584588585
C          130.29027547526064        0.08756934189828        0.01339832793454
C          141.17148946725325        0.06299657340111        0.01730412160903
C          139.94838245416909        0.06408077890229        0.02432982307323
C          142.51950528481274        0.06322799909717        0.01332869498306
C          143.74261687675553        0.06456014946860        0.00508958021977
C          154.62482323354905        0.05698139560335        0.03078856981198
C          153.40174073785218        0.05773514088695        0.03392094226329
C          155.97294911643334        0.05589839835433        0.03098442411151
C          157.19600467924363        0.05812683884969        0.02616131599568
C          168.07808109074784        0.04626153326786        0.01643255563904
C          166.85553932972826        0.04763573733821        0.02308834799316
C          169.42725373540517        0.04562269412737        0.00894909667355
C          170.64964874843216        0.04723287550316       -0.00326724539236
C          104.79009537913430        0.05925095185169        0.01170242872259
C          105.41640484628482       -0.30229934415361        1.22057461600734
C          104.76709231006822       -0.69960073513464        2.41731762055283
C          105.73023334210590       -0.92758810786216        3.36280274208134
C          106.99563212325241       -0.66560613509654        2.77202805682540
N          106.75576346684565       -0.30492540250343        1.47278575236977
C          108.25330349285113       -0.75863774526958        3.38315200271530
C          108.26558391884768       -1.10642761145308        4.82377438718423
C          108.92739891737753       -2.25137556765436        5.27471994877789
C          108.93836812951143       -2.58188395527569        6.61798583668848
C          108.29690178984667       -1.75959533485683        7.54798186850355
N          108.27334019755168       -2.10710274496453        8.88758194233330
C          107.62915317069060       -0.61500391176038        7.10496713215078
C          107.61410561159978       -0.29757503355272        5.75837457567198
C          109.47648936367807       -0.54846653908159        2.74325074731241
C          110.76024615559409       -0.58049644060023        3.41978774726700
C          111.69696812824171       -0.35262185234217        2.47521171336550
N          109.65348191955994       -0.27943810551781        1.41962236715301
C          110.98325531601623       -0.17075727281527        1.22738784930888
C          111.63906757216945        0.06739184364378        0.00196571936012
C          111.01244585092961        0.30177377859020       -1.23816266057312
C          111.66182350293259        0.48840565385874       -2.48506221628608
C          110.69851816005313        0.70778115626708       -3.43243185827492
C          109.43289701348016        0.67365450052125       -2.78742329719789
N          109.67318050477823        0.41094239550066       -1.46464085389816
C          108.17495095926301        0.86500148449763       -3.37424429097757
C          108.16021098388207        1.19253050889138       -4.81927336626047
C          108.82112749417439        2.32414157368017       -5.30390101489296
C          108.80714757498096        2.63121487137995       -6.65291206527176
C          108.13043291645889        1.80440038904064       -7.55334687168546
N          108.15605234314654        2.08023997587066       -8.90936732745848
C          107.47757664845047        0.66380434184771       -7.07860636809585
C          107.48809619368180        0.36970832216743       -5.72699729456432
C          106.95211701516418        0.76837428130543       -2.70597977289564
C          105.66879863288057        1.05330719638283       -3.32135612973935
C          104.73214995189016        0.82926152681536       -2.37572109362478
C          105.44537046166747        0.41795289979032       -1.18353074277979
N          106.77557185161432        0.40633319214969       -1.40521312756063
H          103.69980985521875       -0.80091455073971        2.53099767149820
H          105.57848822239390       -1.25886674943971        4.37708826855499
H          107.47792719273366       -0.07955165731019        0.79680959639965
H          109.42010267375503       -2.89926531670719        4.55810182201062
H          109.44578935556925       -3.47946578357935        6.95429366174087
H          109.01846031671258       -2.71808874917141        9.18187656339642
H          108.09816510102100       -1.34439068202181        9.52216151306059
H          107.12689456782073        0.02583505111593        7.82147152794601
H          107.11018540293711        0.60338252223924        5.42554548793566
H          110.90411031602197       -0.73949383309245        4.47626720770684
H          112.76805525112326       -0.29871458699823        2.58828526215702
H          112.72915902725349        0.45033317001590       -2.63211076817557
H          110.85085460228292        0.86744188965298       -4.48732628166823
H          108.95081900230309        0.30492371331660       -0.76022860712032
H          109.33192430392404        2.98258043329862       -4.60966146335157
H          109.31773024661352        3.51678132044717       -7.01540305512511
H          107.40730361487623        1.66711807674133       -9.44208918542963
H          108.34073568921104        3.04221060356538       -9.14506341966752
H          106.96228366453762        0.01071578004263       -7.77443169592683
H          106.98725373928644       -0.52257080638299       -5.36773711001065
H          105.52522795713530        1.39491404643949       -4.33370677355377
H          103.66137610579125        0.93316686501896       -2.45043741418478
C          118.24089136720438        0.10650621245958       -0.00383837736541
C          118.86147827404986       -0.19335646335094        1.22526473449967
C          118.20551718236251       -0.53320412976935        2.43582396171865
C          119.16425043660064       -0.73178177943842        3.39242684973027
C          120.43348365780219       -0.50805100745038        2.79444827263503
N          120.19991036753231       -0.19645825012494        1.48122685719999
C          121.68898143266415       -0.59724978785032        3.41039330860163
C          121.69477772898863       -0.90385660010244        4.86056999997382
C          122.33474353229421       -2.04844587931868        5.34278534251822
C          122.33841175683816       -2.34305131885037        6.69442505451570
C          121.71178707647316       -1.48419348414176        7.60116540432782
N          121.68025559125719       -1.79534403703846        8.94953154189225
C          121.06638452970883       -0.33931825676082        7.12683332867457
C          121.05818367188033       -0.05789448581592        5.77215369326066
C          122.91605759099896       -0.42236587587494        2.76749215911108
C          124.19753184028899       -0.45058470163248        3.44836150329520
C          125.13924566340249       -0.25824054790007        2.50081326996919
N          123.09952406801270       -0.19224871944740        1.43739127964689
C          124.43091345067231       -0.10222478453211        1.24652235672122
C          125.09221705489924        0.10050898712221        0.01769027457981
C          124.47124790852428        0.30918799930393       -1.22996204177300
C          125.12729877731047        0.46993670050746       -2.47691389689733
C          124.16875743303380        0.66366004235913       -3.43467260030285
C          122.89952322380464        0.63787176249086       -2.79666066008023
N          123.13295214809402        0.40876110785215       -1.46647848819032
C          121.64411443305345        0.80131362034655       -3.39768973981517
C          121.63886392895331        1.09052541622600       -4.85113607801538
C          122.28875302455492        2.21894242831182       -5.35762331768723
C          122.28335882101896        2.49243481346541       -6.71388919205540
C          121.62660412297598        1.63426225713458       -7.59962372777530
N          121.66092251274358        1.87723570345626       -8.96175447585105
C          120.98552076764464        0.49643134481590       -7.10275873970380
C          120.98734067361721        0.23584983354994       -5.74418975701910
C          120.41704987457538        0.71130681648213       -2.73704976793538
C          119.13561802564764        0.95809276837081       -3.37238083492897
C          118.19408736339717        0.76064206199400       -2.42567173510074
C          118.90246528130450        0.40568200108222       -1.21264887452582
N          120.23378296990110        0.39665053112336       -1.42438111330463
H          117.13707276587965       -0.61953617305561        2.55082699187137
H          119.00679370869844       -1.01940115964892        4.41906831606025
H          120.92590589250432       -0.00747551316368        0.79823525400760
H          122.81588970594029       -2.72430914152544        4.64436605738230
H          122.82847021965570       -3.24076563595737        7.05525041271070
H          122.41233197645803       -2.41371971816112        9.26068028783479
H          121.52085426588368       -1.01249400403820        9.56341845404179
H          120.57584405906054        0.32986192095030        7.82533346461427
H          120.57143042066264        0.84299571974941        5.41453643982756
H          124.33673507727516       -0.58286966542364        4.50914688351395
H          126.21050899480096       -0.21237773612666        2.61574969507690
H          126.19566642124312        0.43341120687059       -2.61655016173323
H          124.32666971612026        0.80006373788864       -4.49199440745142
H          122.40688892166681        0.31621242635202       -0.76396717044377
H          122.78402728607978        2.90120724477078       -4.67524043272563
H          122.78508646429053        3.37587177943766       -7.09353771438599
H          120.92271905089926        1.44094578366050       -9.49073456322726
H          121.83428029741354        2.83575759584371       -9.21914507001311
H          120.48607106839626       -0.18089272289740       -7.78688076266534
H          120.49586780828278       -0.65448400609092       -5.36758333935898
H          118.99603969953104        1.25823360045170       -4.39832535545745
H          117.12292190107307        0.85028853235923       -2.51225852360059
C          131.69411441787940        0.08359943889199        0.01486628833069
C          132.31634011789708       -0.22002862033774        1.24223635222481
C          131.66143080385106       -0.55989016582336        2.45336522732478
C          132.62135120696678       -0.76711253421379        3.40693250489342
C          133.89030648708888       -0.54792397484090        2.80672144064444
N          133.65526173816767       -0.23096718168777        1.49498499421479
C          135.14696251226641       -0.64340071226850        3.41935975181157
C          135.15581982209093       -0.95650768792187        4.86810332331835
C          135.79640939485978       -2.10368478929813        5.34336739628492
C          135.80338140239044       -2.40470158391682        6.69357599893772
C          135.17957379928117       -1.54980759640047        7.60596020256919
N          135.15151720145622       -1.86710886045990        8.95304694706540
C          134.53349667557634       -0.40245356866019        7.13864295553101
C          134.52202374048758       -0.11456054492240        5.78534337095244
C          136.37290277881792       -0.46736345578098        2.77444336365256
C          137.65556379332645       -0.49692173291182        3.45300410847403
C          138.59547019279626       -0.29967981249011        2.50467028417995
N          136.55394899914830       -0.23242415408270        1.44482501668020
C          137.88490778828725       -0.14057644875919        1.25196173309120
C          138.54456445737506        0.06569606442055        0.02282530285737
C          137.92218077528912        0.27329982765526       -1.22431226541534
C          138.57648975704902        0.43337721492655       -2.47226447420707
C          137.61646913838933        0.62313096855023       -3.42935346547703
C          136.34806198666340        0.59614623923033       -2.78977349219378
N          136.58345358393942        0.37014290168049       -1.45942303544941
C          135.09159131543453        0.75649616230482       -3.38924698716100
C          135.08280405240794        1.03985203623967       -4.84389946465923
C          135.72777459760613        2.16843139572727       -5.35623113639536
C          135.71680656922140        2.43748164871166       -6.71334532064692
C          135.05941598545493        1.57455279083999       -7.59398592707210
N          135.08734335342109        1.81403856307272       -8.95698433581414
C          134.42414633061620        0.43604695403359       -7.09135800277411
C          134.43128023532213        0.18000985707214       -5.73189615725564
C          133.86581478052781        0.67033965455526       -2.72576542959593
C          132.58372719327383        0.91814019432262       -3.35932215846302
C          131.64385742666701        0.72925943225675       -2.40925522780462
C          132.35385372714674        0.37672174377578       -1.19646260937982
N          133.68461434976663        0.36166807961504       -1.41139382340939
H          130.59279877112519       -0.64074775422048        2.57051369812221
H          132.46470681252853       -1.05762550602375        4.43288214023816
H          134.38084724830810       -0.04357533021400        0.81111305096508
H          136.27549916070046       -2.77647387109751        4.64058456593296
H          136.29394352025579       -3.30434334961932        7.04885031041632
H          135.88482213875565       -2.48651459922047        9.25931236231334
H          134.99428847629002       -1.08672047698627        9.57065921811390
H          134.04510937238484        0.26363836301950        7.84158063276160
H          134.03502125918860        0.78840515611564        5.43337004145176
H          137.79665168731859       -0.63283136253471        4.51308689025735
H          139.66687310697290       -0.25298564176288        2.61797316575699
H          139.64475710767161        0.39872747466295       -2.61319781141155
H          137.77285376712240        0.75797686020086       -4.48710553584566
H          135.85807886040487        0.27785205379326       -0.75616143975135
H          136.22323128594908        2.85437262596991       -4.67769052277270
H          136.21432456701638        3.32129655115629       -7.09762441202500
H          134.34829767480096        1.37378018003208       -9.48152584831748
H          135.25512470739497        2.77284823030136       -9.21715763116035
H          133.92462272846834       -0.24518679959173       -7.77152679642851
H          133.94365683353487       -0.71048533462620       -5.35067867667116
H          132.44284550464963        1.21341797572437       -4.38649566323876
H          130.57286349644491        0.82281727026946       -2.49361760426865
C          145.14642460195873        0.06404923145752        0.00861445883531
C          145.76696410868584       -0.23744151696972        1.23736412010071
C          145.11105465499477       -0.57902488580797        2.44742266759026
C          146.06982796900479       -0.77935900556073        3.40358951102077
C          147.33906054354659       -0.55455905495479        2.80593083969941
N          147.10540872190069       -0.24134367887338        1.49308975984413
C          148.59464814207067       -0.64486035640026        3.42149117110878
C          148.60070493058495       -0.95543146887883        4.87068360737701
C          149.24480359401380       -2.09922920010117        5.34928437908608
C          149.24864940156047       -2.39892932533751        6.69980182449954
C          148.61755646868860       -1.54622271771682        7.60914529834510
N          148.58608582885003       -1.86245172005217        8.95644770814982
C          147.96765145915592       -0.40236372742516        7.13847925902846
C          147.95978215718722       -0.11556703118949        5.78494516538896
C          149.82168561228511       -0.46856052820299        2.77859967969071
C          151.10322709618595       -0.49725746562167        3.45928419383948
C          152.04478781106138       -0.30308431078574        2.51194953736426
N          150.00491073064256       -0.23598975565958        1.44892821611388
C          151.33633153326454       -0.14531368881978        1.25796797121916
C          151.99783997640904        0.06076752663322        0.02983961634004
C          151.37727191292464        0.27146186147827       -1.21764139738967
C          152.03336297346596        0.43626543074676       -2.46407893072051
C          151.07468315835476        0.62960323519979       -3.42180655815605
C          149.80533371053340        0.59947300468014       -2.78423285856128
N          150.03884522573986        0.36892116580059       -1.45435440312004
C          148.54961509584604        0.75996612738995       -3.38525663683836
C          148.54253422487153        1.04789995331992       -4.83909903408058
C          149.18349205118670        2.18040809253257       -5.34757408973757
C          149.17284763957255        2.45295150924895       -6.70407751451655
C          148.52020708061923        1.58954856655946       -7.58772938455942
N          148.54862662946832        1.83250051665941       -8.95020824615160
C          147.88925630619309        0.44696032913180       -7.08892458725666
C          147.89578808137031        0.18755546689840       -5.73016268295351
C          147.32268771818718        0.66740856824378       -2.72484739653867
C          146.04106128301979        0.91157247416578       -3.36085980028676
C          145.09957837903659        0.71438529262643       -2.41410047585275
C          145.80812771371569        0.36132946089687       -1.20057418271831
N          147.13944182758425        0.35337676344789       -1.41197609762510
H          144.04263884412981       -0.66599049758467        2.56224072193943
H          145.91217256496640       -1.06882067210007        4.42967181627305
H          147.83162698543302       -0.05049056177453        0.81084887173794
H          149.72905492050111       -2.77070210434716        4.64879727309731
H          149.74224393942043       -3.29597502311194        7.05741512334120
H          149.32088762567125       -2.47868956588594        9.26556528080868
H          148.42444505305218       -1.08189535918906        9.57271937549939
H          147.47333802997187        0.26180564116729        7.83909202639469
H          147.46978149669070        0.78482689618347        5.43052979429427
H          151.24286515876571       -0.63087369081318        4.51984232534241
H          153.11605488917024       -0.25723393047257        2.62680784213837
H          153.10185873701968        0.40241747691606       -2.60347461884605
H          151.23227163051672        0.76878780122173       -4.47883462108532
H          149.31277356269325        0.27300159247513       -0.75229293443483
H          149.67540033993114        2.86663854168741       -4.66673548326987
H          149.66690113874020        3.33993011866625       -7.08554809462876
H          147.81120505257621        1.39112642755375       -9.47614141142856
H          148.71264491545375        2.79273071691971       -9.20757058527827
H          147.39351959498785       -0.23463694419665       -7.77148847590501
H          147.41146923967003       -0.70583812535732       -5.35155150003254
H          145.90152554527617        1.21018180947156       -4.38725206988566
H          144.02830820244068        0.80233834831212       -2.50107793959040
C          158.59998559442917        0.05768724719400        0.02685786736887
C          159.22436847241531       -0.26084295700958        1.24913740054362
C          158.57174301258971       -0.61533964531253        2.45739515358079
C          159.53346018512056       -0.83495081811223        3.40623094873104
C          160.80154709349947       -0.61018675479956        2.80589380022864
N          160.56388131701280       -0.27599282926212        1.49888481104469
C          162.05921089012185       -0.72087930039794        3.41345876601994
C          162.06972896142821       -1.05175273240062        4.85824518256954
C          162.70421695266211       -2.20797497214210        5.31940913850823
C          162.71346038225096       -2.52311761474579        6.66641946075466
C          162.09763368792426       -1.67410570138095        7.58963012775126
N          162.07189890401881       -2.00515180054242        8.93343691644989
C          161.45685896577731       -0.51819455713591        7.13632103305819
C          161.44351401003289       -0.21586601031948        5.78622311921843
C          163.28463128383723       -0.54373027533255        2.76728529085445
C          164.56949594262852       -0.59848554147008        3.44044720988248
C          165.50762782772767       -0.38833577639632        2.49329028395724
N          163.46271877152807       -0.28174184733695        1.44280907103667
C          164.79407246406140       -0.19389375704399        1.24726904714352
C          165.45043494214516        0.04994133963677        0.02402573784411
C          164.82643819353669        0.29887131397927       -1.21409892898569
C          165.47920085779282        0.50024149460293       -2.45715004022641
C          164.51765708782699        0.71137955351640       -3.40800534032683
C          163.24954883016008        0.65641191899493       -2.76936402194432
N          163.48689992938338        0.39498592499136       -1.44595746310228
C          161.99164178919682        0.81949377872520       -3.36471990991648
C          161.97918905210693        1.13384952932698       -4.81320910826302
C          162.60684908437966        2.28229253284977       -5.30193139401502
C          162.59100796625989        2.57919267783049       -6.65329080155687
C          161.94632685197993        1.72483954982786       -7.55146531333665
N          161.96949650223038        1.99280501360997       -8.90926744582750
C          161.32883134924705        0.56651688132016       -7.07251234417517
C          161.34049459832039        0.28263991475568       -5.71866915216071
C          160.76682186788742        0.70705914688931       -2.70354907763729
C          159.48258573863029        0.95498046568391       -3.33290363077991
C          158.54437076579180        0.74025700667082       -2.38680070901554
C          159.25740568364606        0.37223798140799       -1.18030150451064
N          160.58820438896669        0.37192155746649       -1.39537195414656
H          157.50329543749680       -0.69688881374981        2.57585598898185
H          159.37867416126772       -1.13786677073202        4.42887525326013
H          161.28789448046152       -0.07976444388730        0.81581653573181
H          163.17676204254414       -2.87650745040806        4.60819125253044
H          163.19968134860142       -3.42935905360659        7.01072139493003
H          162.80271803930981       -2.63152392210562        9.23125783910324
H          161.92025506518885       -1.23047745784507        9.55954465964395
H          160.97424269786200        0.14320619033797        7.84761874132413
H          160.96097629008344        0.69367672066319        5.44519347689197
H          164.71345421875000       -0.75901283743090        4.49667297500073
H          166.57976046714626       -0.35282350610186        2.60359607237972
H          166.54760704643394        0.47659942703118       -2.59929057826651
H          164.67256662560365        0.87843584573499       -4.46138535272964
H          162.76269589530725        0.27689388158253       -0.74534206773609
H          163.09241247386876        2.96135324826287       -4.60945285251441
H          163.07479193214672        3.47824864132965       -7.01931654837635
H          161.23708063486038        1.55173769868361       -9.44235224854769
H          162.12204837467499        2.95921946737620       -9.14979879392760
H          160.83945355265516       -0.10800437860809       -7.76660307014145
H          160.86641639260830       -0.62261030051065       -5.35556835581761
H          159.33937247653040        1.26772807629452       -4.35456591822573
H          157.47257550147287        0.82552428527219       -2.46979000451564
