201
 energy: -391.904336174518 gnorm: 0.000697304782 xtb: 6.5.1 (b24c23e)
Zn          28.12081455790358        0.00420634148320       -0.04161989457309
C           24.71372439626174        0.05306210722415       -0.18678894777807
C           25.34854853244235        1.28792034666559       -0.13143130803138
C           24.67901708826852        2.55785137724105       -0.09338355575688
C           25.64075079507905        3.51172179660105       -0.02376775224414
C           26.91145734886551        2.83605986455738       -0.02859370456988
N           26.69839857030023        1.48973092369536       -0.08681067588437
C           28.16397983595963        3.45827049183598        0.04392367982429
C           28.18238269797499        4.94332098278028        0.08508252809500
C           27.67417174415809        5.68070113106391       -0.98453296623114
C           27.69435561441244        7.07002322360725       -0.94629856519330
O           27.21021007290592        7.79632772220434       -1.98375150078212
C           28.21726190831469        7.72724544179584        0.16848957953681
O           28.22057713557463        9.09789466914588        0.18043811461764
C           28.72142586703293        6.99116673378328        1.23755963538671
O           29.21424424026857        7.70589762568830        2.29823384361461
C           28.70965287083127        5.60242524075138        1.19892163403649
C           29.39922047768508        2.80225640698160        0.07890020059471
C           30.68234226812357        3.44878434003901        0.09451655998449
C           31.62390301099790        2.47082718720033        0.10495883945977
N           29.58696805958317        1.44530340084187        0.07016478926621
C           30.92738878802571        1.21831930535657        0.08894066430979
C           31.55317877009240       -0.04537249284467        0.07824304390066
C           30.89329755185465       -1.29064820869502        0.03774173429652
C           31.55569592300714       -2.56153210817354        0.00675875874953
C           30.58834351496559       -3.51219766885138       -0.04602676863433
C           29.32312833107685       -2.83082879570273       -0.04134016068835
N           29.54730248522361       -1.47988969587393        0.00482321580104
C           28.07125496880542       -3.45077669956683       -0.11072438319812
C           28.04866594831544       -4.93626273760055       -0.13970689424474
C           28.54219224965987       -5.66667475259513        0.94143782117496
C           28.51433761686809       -7.05617761295369        0.91549664640721
O           28.98312239139661       -7.77590885364736        1.96453087555948
C           27.99899882205348       -7.72056335969602       -0.19861851695198
O           27.98721060686608       -9.09137289093416       -0.19799868025992
C           27.51017736156988       -6.99143558373180       -1.27942908222651
O           27.02393755516317       -7.71273770782586       -2.33891528681551
C           27.52906713893522       -5.60244567429898       -1.25290579758841
C           26.83570839265434       -2.79262147241901       -0.15830507694730
C           25.54750951034775       -3.43340688935114       -0.18684023185579
C           24.61148290832207       -2.45169416024172       -0.21325952699088
C           25.31479347848956       -1.20003648479992       -0.19121600572478
N           26.65853324872113       -1.44005683614042       -0.15567473864615
H           23.62857772310377        0.06853954528313       -0.21802507154120
H           23.60849849298858        2.69020644922529       -0.11076350778207
H           25.50626238093221        4.57981223711440        0.03641846436085
H           27.27911536725361        5.18104620501297       -1.85968912734431
H           27.31386567354186        8.73832380478655       -1.77020193869611
H           28.61585209290061        9.38738478436544        1.01818693764878
H           29.54374040295166        7.11397211503055        2.98711853151789
H           29.09171065224668        5.03590733786069        2.04015823193526
H           30.84179694405626        4.51504289133455        0.08307434500409
H           32.69664895288746        2.58084277132395        0.11567729572116
H           32.62502753535684       -2.70060642653976        0.01861553110117
H           30.71833464195331       -4.58123001246810       -0.09600587265052
H           28.93200499479869       -5.16131560775926        1.81567161874940
H           28.87768027394609       -8.71918644313462        1.75760716206858
H           27.60143873471094       -9.38589815081776       -1.03845022336450
H           26.70783451403971       -7.12477326603171       -3.03741437450059
H           27.15843192759941       -5.04153551105412       -2.10297835956661
H           25.38362914493668       -4.49917655848015       -0.17457745843593
H           23.53780919196649       -2.55462652559644       -0.23722570500287
Zn          65.34996421766989       -0.03934918824354       -0.02644814811116
C           68.75521907103263       -0.06986260814621       -0.21018607847476
C           68.12023108830702       -1.30330827636559       -0.28970550597554
C           68.78932512445915       -2.56891409139531       -0.40358808271701
C           67.82769946998280       -3.52494538411239       -0.43442355341148
C           66.55741185060540       -2.85379699882404       -0.34965336238587
N           66.77076517092992       -1.50958271984242       -0.25530158098989
C           65.30518441074359       -3.48084257816801       -0.33666725854574
C           65.28639828299673       -4.96069566569328       -0.46747529821251
C           65.78504487044162       -5.56888942353212       -1.61968004425779
C           65.76486293670796       -6.95330483356473       -1.74251435865932
O           66.23993990316350       -7.55415013080023       -2.86124971617677
C           65.25141516017364       -7.73568117493477       -0.70697904900779
O           65.24782992897545       -9.09856846983113       -0.85387150131165
C           64.75672544233785       -7.12878487711554        0.44445055667717
O           64.27276673193373       -7.96195019252750        1.41944254266597
C           64.76867524010187       -5.74492246285271        0.56696491737853
C           64.07090170364502       -2.83370301979901       -0.21337528177518
C           62.78740435438065       -3.47815542851549       -0.25812652423376
C           61.84688439721017       -2.50817813796662       -0.12537432467051
N           63.88423252382707       -1.48472455214069       -0.06440456025349
C           62.54429618064488       -1.26184111836623       -0.00531317742749
C           61.91952023691426       -0.00545756953937        0.13554931594146
C           62.57980869792858        1.23666217910117        0.23028277192157
C           61.91784450449967        2.50239342244973        0.35131282310773
C           62.88509974949538        3.45350433841436        0.39635045418871
C           64.14992548714227        2.77686764364839        0.30977379234718
N           63.92546398307989        1.42925889493129        0.20457241252540
C           65.40134130438982        3.40150673365473        0.29741558748067
C           65.42465081083074        4.88082556880524        0.43529868349015
C           64.94140596159407        5.48534572263513        1.59586628968194
C           64.96926487083967        6.86907401238713        1.72524410587171
O           64.51018103856367        7.46639340907862        2.85235250667199
C           65.47450451632278        7.65438143712690        0.68779540862511
O           65.48655661780904        9.01639911909586        0.84181331748677
C           65.95320556403078        7.05111260706732       -0.47222632825339
O           66.42993835737249        7.88677028238720       -1.44870992617072
C           65.93418266736798        5.66784806556737       -0.60107775197424
C           66.63583347881892        2.75336504654484        0.16282276648796
C           67.92418891438756        3.39368760356970        0.19432442335275
C           68.85913450043917        2.42164407653846        0.04732719248696
C           68.15506565924204        1.17535537335617       -0.06595678969433
N           66.81195877750518        1.40930941594916        0.01012890050087
H           69.83998698793428       -0.08115493960150       -0.25384118087841
H           69.85955277676489       -2.69792095820573       -0.44614976184653
H           67.96215639602327       -4.59284050513095       -0.49806483534580
H           66.17262968415987       -4.97102173832841       -2.43451174891405
H           66.13771522282993       -8.51460608233757       -2.75744282287209
H           64.85923502749188       -9.48329383819530       -0.05213219926375
H           63.94917246189087       -7.45377727375552        2.17477553539157
H           64.39422810280757       -5.28007486270375        1.47155369845328
H           62.62684807715274       -4.53613796509518       -0.38984332050059
H           60.77421891513834       -2.61914630998712       -0.11581908520183
H           60.84878388768034        2.63844789452730        0.39042252758430
H           62.75514809827406        4.52116726152915        0.46979278462206
H           64.55959222519780        4.88513356731371        2.41169847525291
H           64.61248003807081        8.42710664527813        2.75097077157857
H           65.86299218175387        9.40394640250318        0.03558087988294
H           66.73857562957694        7.38105224216852       -2.21192012470657
H           66.29662401444129        5.20595221367904       -1.51207502133639
H           68.08900754437460        4.45120907062549        0.32601139205652
H           69.93260134404272        2.52697915194857        0.02455406288332
C           32.95781001153025       -0.06223415140884        0.09078255657692
C           34.18287010786064       -0.06941510227448        0.08953157332680
C           35.52523533336424       -0.07321262043474        0.08058799779121
C           36.75624080677095       -0.07142562149733        0.06272087298817
C           38.09366859024447       -0.06592376445813        0.03930365180134
C           39.32455731268714       -0.05905616234926        0.01342199826026
C           40.66654071089386       -0.05034921829654       -0.01216855518249
C           41.89154812531503       -0.04059565537909       -0.03519176085690
C           51.58171048009467        0.00896750295714        0.05059187414397
C           52.80645972205697        0.01575440958306        0.08489055845263
C           54.14836928215274        0.02147068383621        0.11582027879794
C           55.37913845845097        0.02696482317322        0.14696433456571
C           56.71661463628857        0.02826701208412        0.16748058652846
C           57.94772999752127        0.02378315435088        0.17767936918663
C           59.29012355593905        0.01799082248056        0.17585989744577
C           60.51511607061619        0.00975433251525        0.16450140812216
Zn          46.73775655229502       -0.01360863615147       -0.03667433252657
C           43.29563138917372       -0.03189202716334       -0.04896143249846
C           43.93375428228570        1.22174248901758        0.05370361023138
C           43.24943721046355        2.47288572812991        0.18981935708866
C           44.20040336126649        3.44032451282643        0.25268284123084
C           45.47545340043471        2.78809398814624        0.14802706570972
N           45.27607944169664        1.43768237283484        0.03610645997446
C           46.71789978510949        3.43129082801264        0.18349143988405
C           46.70795440522052        4.91374300235764        0.27376564315233
C           47.26908026427927        5.55649472634713        1.37762439357709
C           47.26169157186784        6.94513270208991        1.47895360395135
O           47.79596438280502        7.58072819710885        2.55470724726194
C           46.69379292922666        7.71226770669710        0.45683973629280
O           46.67552900459139        9.06927764032832        0.52322475013030
C           46.13799267105725        7.06133886402644       -0.64762115327463
O           45.60185643050217        7.87088039173732       -1.61630408375194
C           46.13523132897554        5.67686776852689       -0.74528348534645
C           47.96773699685436        2.80303891961777        0.14519384842368
C           49.23609583958120        3.47630364556685        0.13790058553765
C           50.19765486093964        2.51824560238244        0.09691010030565
N           48.18174593584601        1.45119376036660        0.09073023567798
C           49.52663852841275        1.25293564163164        0.06679351739871
C           50.17786818770064        0.00266424525422        0.01907416013710
C           49.53982598948969       -1.25211740351758       -0.06064501602515
C           50.22288771493822       -2.51141279656008       -0.08867879799904
C           49.27225056447115       -3.47654005810058       -0.17835867233492
C           47.99842814711820       -2.81400720104665       -0.21290472358831
N           48.19801741295182       -1.46155372696650       -0.13059200740030
C           46.75638695253706       -3.45319971615563       -0.29105913128413
C           46.76553599723853       -4.93508609972913       -0.40755720632504
C           47.34770405053649       -5.54189210025433       -1.52102477325699
C           47.34349068398505       -6.92697984760397       -1.63757851281070
O           47.89033931450408       -7.52916639863914       -2.72010824096895
C           46.76272988860894       -7.70633660632213       -0.63513174073961
O           46.78437669089094       -9.08659475183595       -0.78596111074852
C           46.21542741806187       -7.10309423837263        0.49541737061230
O           45.68014248491313       -7.86277249955465        1.49360180190981
C           46.20001167731422       -5.71653004196447        0.60008041832856
C           45.50673528983445       -2.82473593995358       -0.26652144855258
C           44.23945427783110       -3.49043780248050       -0.38391445585077
C           43.27744588160790       -2.53510880987567       -0.31160905293369
C           43.94710499600777       -1.27726159010073       -0.16145173290141
N           45.29184968620179       -1.47784949396722       -0.14317078595210
H           42.17832735737061        2.58861847230845        0.23759888174733
H           44.05235651632289        4.50138683171314        0.37343818075185
H           47.70063185220047        4.97137136220433        2.18201221430403
H           48.15677572224698        6.94769292183278        3.18915579125851
H           46.24181475597577        9.40546212597051       -0.27758273800622
H           45.24041413435982        7.34538256995494       -2.34176303389436
H           45.70864287755275        5.19672206852400       -1.61816078842164
H           49.37315056589639        4.54558464933073        0.14991868561434
H           51.26779998905720        2.65013294762179        0.07926368315592
H           51.29312676338260       -2.63416578277915       -0.03971859958984
H           49.41878748909102       -4.54416235783236       -0.20743482070976
H           47.78286483564170       -4.94475071552246       -2.31190036715534
H           47.79631887282919       -8.49070618171002       -2.61309180381562
H           45.92644788288829       -9.46923739070457       -0.56048149137227
H           45.98125847867633       -8.77902016307855        1.41299920786985
H           45.77114726756886       -5.25821798791125        1.48181315871446
H           44.10448830730442       -4.55206430176940       -0.51426598212251
H           42.20781457948532       -2.66243009899828       -0.36273532420116
