356
 energy: -616.975139279411 gnorm: 0.000400799939 xtb: 6.5.1 (b24c23e)
C           56.46179218519776        0.07723838955312        0.03770582265063
C           57.07731169639392        1.30168201802621        0.26299497557080
C           56.43249311279634        2.55235092376493        0.47680532668060
C           57.40015665593092        3.49848337723204        0.66486137485598
C           58.66761133259970        2.85429110665375        0.58057243668345
N           58.42209159548692        1.53447059883887        0.32932014831422
C           59.93428228141106        3.43731297318368        0.69890156403819
C           59.97089805217672        4.89020194192078        0.99064148280029
C           60.55869155965234        5.79286087873834        0.10523606923739
C           60.56292900920926        7.14257572540531        0.41976627657404
N           60.03269352972102        7.62767456037609        1.53789002728442
C           59.47343947833716        6.77380792521506        2.38893544544757
C           59.41533391197551        5.40804283544377        2.16007597200374
C           61.14723141839130        2.75787207361655        0.56650307451468
C           62.44773479918506        3.37812462312286        0.74630363071672
C           63.36415605209199        2.40843189012166        0.54773784897115
N           61.29576403551627        1.43457371651528        0.28199439986859
C           62.62236001458253        1.19660518704262        0.25667348717269
C           63.25374476566199       -0.03620189947680       -0.00664536581270
C           62.61170564969900       -1.26289791839210       -0.26160347647642
C           63.24957837389425       -2.49823768235073       -0.55102229067646
C           62.27763991266418       -3.44246843781994       -0.73345697710687
C           61.01501166255542       -2.81293427569738       -0.55151342491963
N           61.26900385538453       -1.49526871873729       -0.27605504299655
C           59.74946551218245       -3.39899565245505       -0.65859290310436
C           59.71028153892401       -4.85123315460478       -0.94943324513831
C           60.27979662550399       -5.78116938854072       -0.08002040493123
C           60.21661968092170       -7.12917589673893       -0.39582147615994
N           59.63921886286877       -7.58792548824694       -1.50155934383488
C           59.09557098347601       -6.70829976956650       -2.33672893017722
C           59.10345386778630       -5.34194407978726       -2.10524589148159
C           58.53558538199406       -2.71946118092114       -0.51155897284495
C           57.22869828192496       -3.35571462090066       -0.57376063920915
C           56.31923204246022       -2.37974976767139       -0.37996835937813
C           57.06925920609775       -1.15060569697189       -0.18918046631599
N           58.40056165568455       -1.39466161508404       -0.26730434201344
H           55.37654872076255        0.09059888548394        0.04365914077931
H           55.36390234318494        2.69677115553796        0.47839725147589
H           57.25522098042939        4.55238705315128        0.83845563043673
H           59.14342677373512        0.83180810102862        0.20621722387626
H           60.99205523106718        5.44408785927061       -0.82444734924454
H           61.01035071532212        7.86518251532068       -0.25636252522416
H           59.05248537898407        7.19952870730629        3.29510803540686
H           58.96029423560271        4.74845219032294        2.88943063609693
H           62.61451293910917        4.41159825172107        1.00305518237624
H           64.43900911812926        2.47837303667575        0.59563474969491
H           64.31688995076138       -2.63556243590662       -0.61553503866488
H           62.41941377964733       -4.48151784101669       -0.98200235169195
H           60.55068285186591       -0.79704999658398       -0.11434474802441
H           60.74941954689855       -5.45485684742933        0.84035184697173
H           60.64861567142768       -7.87202402961407        0.26839500944330
H           58.63352795095608       -7.11334007758560       -3.23230093683614
H           58.65911372478911       -4.66114997739362       -2.82145989697492
H           57.05642558159298       -4.40824036679583       -0.73108804510850
H           55.24336896940039       -2.45404849244122       -0.35451543168118
C          143.34725411787306       -0.08223934427587       -0.00966680529362
C          142.73134571754105       -1.27795352009023       -0.35587838933291
C          143.37561275411596       -2.49051740506050       -0.73038624084349
C          142.40775832370386       -3.42209750735579       -0.98012908254536
C          141.14081510734616       -2.81087759299924       -0.75708168022628
N          141.38669373297790       -1.51790579743015       -0.39218976595790
C          139.87393615805226       -3.38806895693388       -0.89950167519843
C          139.83581421332562       -4.81769533872600       -1.28907271465003
C          139.23323863339618       -5.22810475082234       -2.47772641095321
C          139.22803590186277       -6.57524821414479       -2.80291000678970
N          139.77087072525330       -7.50951317782353       -2.02884448544577
C          140.34405816687931       -7.12742617866497       -0.89236615777125
C          140.40430751486895       -5.80422822293479       -0.48414365120345
C          138.66150806922832       -2.72315156030911       -0.70339098388449
C          137.36138204369618       -3.36210843562928       -0.80205518910029
C          136.44524859623559       -2.40537353124318       -0.54712836647277
N          138.51330451562322       -1.40989809006783       -0.37558864277367
C          137.18696503368938       -1.18703656213701       -0.28451277197851
C          136.55579056026409        0.03861915685536        0.01100073090675
C          137.19826884530542        1.25380482250485        0.31513975239500
C          136.56106816022765        2.49121049509934        0.59704043700328
C          137.53322763610456        3.41678031632244        0.85742189345604
C          138.79526661834424        2.76922120250816        0.74993819817955
N          138.54084764736857        1.46633201797724        0.41186374494422
C          140.06084171006938        3.33937499709180        0.92268301634972
C          140.10010390905413        4.76802291475251        1.31307072640697
C          139.52384582351533        5.21048085292852        2.50356478528789
C          139.58784171485513        6.55676424783984        2.82639017862093
N          140.17213075680249        7.46150602718115        2.04756122630505
C          140.72192906806706        7.04879604177957        0.90993960662257
C          140.71384327609397        5.72377825892146        0.50389233697062
C          141.27445224644632        2.66401212274177        0.75541125293308
C          142.58145513352849        3.25934961611515        0.98774272795244
C          143.49058992220796        2.29984266332188        0.72311100425707
C          142.74021904752729        1.11641724066736        0.34078926365826
N          141.40900607097666        1.37027770058994        0.37977669927765
H          144.43250110664039       -0.09622615246835       -0.01383821426458
H          144.44394990495513       -2.61853171347993       -0.80121126158136
H          142.55229402329093       -4.44156446922947       -1.29894661770364
H          140.66557632249032       -0.83589161279528       -0.18228381058231
H          138.78921013203419       -4.49996047587157       -3.14587888127454
H          138.76925541259820       -6.91828295470862       -3.72559002102501
H          140.77501578704579       -7.91376749616861       -0.27957497549955
H          140.87094037095932       -5.54149065744206        0.45781100581845
H          137.19482086133451       -4.40394544707207       -1.02262864543810
H          135.37072232678415       -2.49142421148758       -0.52504968135915
H          135.49401446192326        2.64470969240366        0.59408763667074
H          137.39214201449553        4.45876915747863        1.09376667313037
H          139.25886346220639        0.76714581980057        0.25302787140410
H          139.04844297257037        4.50697886748271        3.17676616962870
H          139.15087212003272        6.92367497694426        3.75054802365486
H          141.18938275745640        7.81154952971289        0.29407878184747
H          141.16337441638296        5.43568568943190       -0.43886890327912
H          142.75407777603527        4.27019323947002        1.32036242147497
H          144.56642986062934        2.35412071074079        0.78036892920105
C           68.45554395340733       -0.09698394862550       -0.03041100714996
C           67.22704144084133       -0.08908899701619       -0.02736831047999
C           65.88310450245682       -0.07557300395948       -0.02208779431904
C           64.65916888136736       -0.05721881250281       -0.01550353727128
C           69.79937780531094       -0.10015789771714       -0.03324884568166
C           71.02363785890100       -0.09624169154543       -0.03428381455811
C           84.48890544798718        0.00940213900946        0.03657079329481
C           83.25999978978732        0.00470906429145        0.03311391519595
C           81.91684070811257       -0.00213745843219        0.02681746426641
C           80.69239122279798       -0.01328249482805        0.01838080922364
C           85.83207826169584        0.01169286338776        0.03813422302042
C           87.05660685131851        0.01498038270116        0.03641769611533
C          100.51983838602004       -0.00117458949400        0.01179366637974
C           99.29092640858352        0.00091545318883        0.00974402221224
C           97.94784037279753        0.00286138153270        0.00880644454755
C           96.72332271098678        0.00142917749683        0.00619778483918
C          101.86292374379155       -0.00286678803254        0.01405678279540
C          103.08744476186517       -0.00222943867660        0.01451072455563
C          116.55047320850700       -0.00029597301132        0.02761027057809
C          115.32155341168099       -0.00479499134804        0.02849904331784
C          113.97839182033437       -0.00754136447857        0.02705881512222
C          112.75386372279171       -0.01092073730637        0.02466096370733
C          117.89362972603293        0.00582687413937        0.02458917458015
C          119.11809362132932        0.01556522173154        0.01757235503453
C          132.58270409208905        0.09600746735879       -0.00839163211726
C          131.35418290901774        0.10295441517858       -0.01667984335401
C          130.01040068111723        0.10396449069786       -0.02372145398357
C          128.78615578436629        0.09706103767850       -0.02934400554251
C          133.92657868829596        0.08279749803084       -0.00053623797425
C          135.15048847511000        0.06273601690333        0.00626032609822
C           72.42820002959611       -0.08823723185781       -0.03396877780418
C           73.06260527356110       -1.31872991542648        0.22443982793541
C           72.42125476458820       -2.55233581411907        0.50705304826588
C           73.39193239892695       -3.49945519729518        0.68786745307580
C           74.65492358271932       -2.87146163893630        0.51194093969807
N           74.40512174205467       -1.55260434158393        0.24223021583396
C           75.91899951751680       -3.46512523025565        0.61433237026860
C           75.94199618849275       -4.92194353274958        0.88974270904452
C           76.52772298511893       -5.42975387875949        2.04882631371108
C           76.52228188259367       -6.79870909350756        2.26483396019208
N           75.98453938959062       -7.66454194114196        1.41171178732426
C           75.42672148037730       -7.18918261661800        0.30305184324011
C           75.37809521793082       -5.83716627524708        0.00162117321480
C           77.14053488366879       -2.80383101842580        0.48022905351946
C           78.43073251348784       -3.46768395910524        0.53823853089307
C           79.36265746106527       -2.50700804043263        0.37014074383591
N           77.30998621816259       -1.47048340284051        0.26109543763456
C           78.64028100608904       -1.26160930805529        0.20041349091105
C           79.28859389737740       -0.02476477759488        0.00693399290672
C           78.65354278519887        1.21485429263453       -0.20305503769922
C           79.29399345745642        2.46880460509633       -0.37740811012113
C           78.32333527328407        3.41386540116921       -0.56858912713212
C           77.06147222837292        2.76099978746703       -0.52419093050007
N           77.31175318467760        1.43508163289455       -0.29119117167293
C           75.79805527216840        3.34718903180951       -0.66647994580068
C           75.77642108207107        4.80335379659518       -0.94572307482505
C           75.17734367328384        5.70153290708404       -0.06336267742402
C           75.18619970676130        7.05392307483837       -0.36637362533386
N           75.73931619665787        7.54534571565884       -1.47052359560763
C           76.30978416811558        6.69576405469095       -2.31847284386758
C           76.35634452739956        5.32780005519131       -2.10031333474700
C           74.57656872203488        2.67907873752517       -0.56924384671037
C           73.28758797923406        3.31520188014666       -0.77491491648690
C           72.35550362871280        2.35682575833061       -0.59503711846771
C           73.07673485683928        1.13665021462386       -0.29071928681059
N           74.40687277240714        1.35693006961624       -0.29144788411149
H           71.35353543087038       -2.68783426434511        0.56795238900316
H           73.24760962473874       -4.53938604887273        0.93108044351589
H           75.12203710523781       -0.85192656603212        0.08615942626083
H           76.96755841338263       -4.76019337057983        2.77825369412258
H           76.96863241548682       -7.21731893609943        3.16208006952313
H           74.99894372418186       -7.92123427511764       -0.37568238541735
H           74.92375577456362       -5.49677203465485       -0.92129862623552
H           78.58081321504370       -4.52625468620314        0.67480237582578
H           80.43614653824412       -2.60593089023071        0.35087289196336
H           80.36099073595227        2.62047416444843       -0.35333784455431
H           78.46674384741297        4.47148005874894       -0.71794493320108
H           76.59548351678328        0.72308467268733       -0.19485512194901
H           74.72475987669166        5.34718992468920        0.85500393581604
H           74.72990835435526        7.77314083060864        0.30743097498107
H           76.75000671168296        7.12686758477533       -3.21285025168176
H           76.82176918184379        4.67182274874955       -2.82636807542258
H           73.13852064852465        4.35068796736200       -1.03429832513702
H           71.28271636952313        2.43929531301827       -0.66421800194318
C           88.46048626396889        0.01215173334104        0.03177506636266
C           89.08481509027713       -1.22160756836243        0.30089205787674
C           88.43326105108488       -2.44508000736156        0.60327399375595
C           89.39552375838032       -3.40120960058885        0.78188916899672
C           90.66306321710290       -2.78920018580044        0.58433518064706
N           90.42466584078574       -1.46984665902571        0.30626821933071
C           91.92148545252678       -3.39683809865609        0.67315954496144
C           91.93131555971361       -4.85223925581519        0.95638341272835
C           92.52890013643579       -5.36135618458836        2.10879610911725
C           92.50980882595528       -6.72904431138518        2.33208559392506
N           91.94793300283347       -7.59240907421096        1.49214888176246
C           91.37866669339219       -7.11583210600213        0.38983775147667
C           91.34221005382180       -5.76489900608077        0.08202988894909
C           93.14834524757852       -2.75026599385508        0.51763028744350
C           94.43195674460446       -3.42760461252888        0.56238771136359
C           95.37184492225890       -2.47770253706061        0.37791828695830
N           93.32908194246362       -1.42000016682024        0.28880293385517
C           94.66062745195572       -1.22554945597298        0.21100964010149
C           95.31954101254715        0.00366122502312        0.00508405834509
C           94.69555040714884        1.24865406759965       -0.20673624132459
C           95.34766599296094        2.49471290867413       -0.39371001929902
C           94.38541649161141        3.44889385472065       -0.58243137610703
C           93.11727126274185        2.80962339006337       -0.52392348826426
N           93.35547133542113        1.48250446191159       -0.28540071913403
C           91.85867875387193        3.40810822343238       -0.65915947905445
C           91.84930886109964        4.86276490014555       -0.94645194725151
C           91.26463072405576        5.77102500537707       -0.06468477540303
C           91.28408351660114        7.12171246374392       -0.37458928831404
N           91.83432815904133        7.60232125365999       -1.48492945035212
C           92.39119930138787        6.74316551143404       -2.33226931722336
C           92.42644203848634        5.37591504237389       -2.10749954213872
C           90.63152433902607        2.75313818585683       -0.54695827668160
C           89.34717468310325        3.40017167683733       -0.74729168362261
C           88.40730375223046        2.45228405010860       -0.55254732475510
C           89.11914269827653        1.22780277198072       -0.24362325353007
N           90.45104443567635        1.43481678300266       -0.25696064785215
H           87.36494957319694       -2.56825713501891        0.67804969808825
H           89.24257403047618       -4.43704428308546        1.03697356374093
H           91.14741892258151       -0.77924648031478        0.13314219278673
H           92.98833896980807       -4.69367455064323        2.82778518273333
H           92.96498693117195       -7.14862553466669        3.22442552651412
H           90.93105164551127       -7.84590080887170       -0.27814145836294
H           90.87770687857423       -5.42352219869478       -0.83545561104379
H           94.57252412278234       -4.48704276991224        0.70229728691650
H           96.44388814645184       -2.58813645718596        0.34552891243740
H           96.41635701119138        2.63525888783618       -0.37926106606803
H           94.53870967004254        4.50407226961387       -0.73901168481695
H           92.63248518240523        0.77882316711280       -0.17867592096385
H           90.81502656672667        5.42547343457902        0.85849502446060
H           90.83903199320274        7.84853851937914        0.29857110231414
H           92.82947273297007        7.16566738590903       -3.23169725646475
H           92.88080586611933        4.71202550828836       -2.83336897426601
H           89.20607611360052        4.43498403066925       -1.01374869214045
H           87.33478123911340        2.54469080246809       -0.61310587906557
C          104.49123262746667       -0.00495082500185        0.01379663861533
C          105.11491153177711       -1.23823561353365        0.28644054547807
C          104.46246599153373       -2.46178137111686        0.58662160723404
C          105.42427114497529       -3.41762850824096        0.76913020045809
C          106.69242825470991       -2.80520418002275        0.57684328363878
N          106.45475682612741       -1.48598806845869        0.29738531115005
C          107.95067533248773       -3.41211335067918        0.67184924677763
C          107.95966408675267       -4.86743239481842        0.95568548133494
C          108.55016080343384       -5.37538625679289        2.11225235183422
C          108.53036464828413       -6.74289625561696        2.33643102586087
N          107.97433469046938       -7.60714461831569        1.49350458692255
C          107.41185111989219       -7.13167600130056        0.38726431179051
C          107.37655795533033       -5.78095863090082        0.07826226706777
C          109.17798111743016       -2.76478463134702        0.52281929794277
C          110.46179241482460       -3.44108566349192        0.57572674249320
C          111.40205137932632       -2.49062815653156        0.39589310247231
N          109.35904877265776       -1.43456922740197        0.29398574438113
C          110.69091620094243       -1.23920592058952        0.22355079868031
C          111.35000747193033       -0.00986461298948        0.01920330767036
C          110.72617099555502        1.23470109703064       -0.19592431007143
C          111.37857107500506        2.48101701863747       -0.38022915515552
C          110.41678930472534        3.43489971273124       -0.57279666995173
C          109.14865967440403        2.79514511231362       -0.51986300375466
N          109.38632277871999        1.46812347225337       -0.28030082976247
C          107.89040026759473        3.39308490115169       -0.66100542404756
C          107.88115552354235        4.84790457686197       -0.94724965067990
C          107.28956866518951        5.75469192289654       -0.06855836940923
C          107.30891456029870        7.10563572314660       -0.37739671364675
N          107.86544222402733        7.58788701915998       -1.48387367273571
C          108.42899529436734        6.73015412580926       -2.32826185790147
C          108.46483026928935        5.36280934753137       -2.10426371426442
C          106.66316587810290        2.73716298475360       -0.55567026048728
C          105.37944229533686        3.38301724399820       -0.76389001318045
C          104.43925096684644        2.43451204698707       -0.57385161839521
C          105.15034309506611        1.21082011765372       -0.25997894299933
N          106.48210344575703        1.41886897736077       -0.26596645611424
H          103.39388934275691       -2.58518440917243        0.65717460651979
H          105.27062463746171       -4.45350826116025        1.02361601325605
H          107.17795393212742       -0.79506343115087        0.12746474265264
H          109.00457761908056       -4.70681793166169        2.83359393934270
H          108.97999876091301       -7.16158880719249        3.23198264103043
H          106.96887967028540       -7.86248860502461       -0.28299492869620
H          106.91752598065230       -5.44052235509924       -0.84231948156480
H          110.60227234877317       -4.50027247065874        0.71762565282079
H          112.47436316479458       -2.60022897290367        0.37035684873821
H          112.44713545307428        2.62196341242947       -0.36135222852084
H          110.57041655701012        4.49014235685499       -0.72859673655649
H          108.66306715065460        0.76419220457670       -0.17707204790190
H          106.83459245340249        5.40792032250095        0.85153461270235
H          106.85841854073591        7.83128272807963        0.29342065057351
H          108.87230370562132        7.15395354785228       -3.22460264300951
H          108.92459949586564        4.70008968850982       -2.82779312386285
H          105.23901135030100        4.41744220253484       -1.03220535981585
H          103.36703285067529        2.52589756887861       -0.64106097518698
C          120.52187902704213        0.02529115132013        0.00725353617139
C          121.15914645889947       -1.20305528616365        0.27008485472215
C          120.52114171119949       -2.43389969500941        0.57158624966643
C          121.49353148825125       -3.38161496877625        0.73954402688300
C          122.75400293949545       -2.75677766267611        0.53631859673977
N          122.50126262923533       -1.43836005091626        0.26633295829637
C          124.01842662099884       -3.35329599007576        0.61091664345004
C          124.04352567578277       -4.81046682228077        0.88392709719772
C          124.65461056282103       -5.32202462429060        2.02814918033095
C          124.64818506579223       -6.69119125951352        2.24289325407926
N          124.08644776638428       -7.55373069728521        1.40201179732469
C          123.50479975901710       -7.07484180363755        0.30720653296471
C          123.45495480915699       -5.72231556179912        0.00838291643032
C          125.23830279849872       -2.69426649318798        0.45082429478766
C          126.52799087166002       -3.36084409601646        0.47836000045326
C          127.45832435072811       -2.40053836995387        0.29943844650130
N          125.40562635235436       -1.36012626259017        0.23628163799572
C          126.73525383066020       -1.15258197785044        0.15346544810595
C          127.38171382597965        0.08614546336324       -0.03252627235409
C          126.74484637486545        1.32746340956188       -0.22472656802739
C          127.38333561424832        2.58281792942668       -0.39600641028757
C          126.41094295202851        3.52805323636159       -0.57770854479512
C          125.14987231959468        2.87395180717706       -0.53007073628767
N          125.40222028237882        1.54740498475397       -0.30428748496500
C          123.88504603865998        3.45945171819912       -0.66548608031846
C          123.86018402541330        4.91556566852567       -0.94411146189135
C          123.26002062520162        5.81207226327636       -0.06070047712383
C          123.26431021865879        7.16447854277219       -0.36366530856191
N          123.81407292418368        7.65759823166684       -1.46875561821439
C          124.38585366791888        6.80970617571653       -2.31755518818927
C          124.43686235512395        5.44189411948601       -2.09952210156297
C          122.66488263156447        2.79033631053038       -0.56134070481331
C          121.37406726629399        3.42443588265007       -0.76220697874593
C          120.44390172830431        2.46613829736559       -0.57211458259150
C          121.16809721321000        1.24810613425507       -0.26613012911818
N          122.49774161164186        1.46904651748950       -0.27693886602235
H          119.45453305042660       -2.56747852080758        0.65266783745024
H          121.35209820003524       -4.41997671124159        0.99098433337930
H          123.21618279246542       -0.73989907345170        0.09229202393390
H          125.11447418395676       -4.65519384857917        2.74764442394858
H          125.11362691591204       -7.11273876249079        3.12898763287554
H          123.05783688107570       -7.80426485098107       -0.36190977832805
H          122.98033074787816       -5.37886305755981       -0.90312626189141
H          126.67854983943874       -4.42068161436830        0.60415573644541
H          128.53099809463168       -2.50130251565877        0.25841762632125
H          128.45038128252273        2.73500818582744       -0.37727355070597
H          126.55270817988452        4.58647687912842       -0.72293201185046
H          124.68693742037966        0.83455285580485       -0.20688928090673
H          122.80998600522422        5.45639083479992        0.85842254150149
H          122.80683907014688        7.88227868268586        0.31087204118375
H          124.82327525871356        7.24216791294085       -3.21266416646108
H          124.90291824723748        4.78735943814224       -2.82648202836581
H          121.22245078849782        4.45848791758282       -1.02582363024252
H          119.37058404578708        2.54740716730740       -0.63473399247766
