118
 energy: -202.115950276009 gnorm: 0.000406426742 xtb: 6.5.1 (b24c23e)
Ni          12.76945026127938       -0.04121962354175       -0.02416255877073
C            9.37638947474837       -0.06267269836363       -0.05697663432031
C           10.03283488959613       -1.26204857900599       -0.23843407408216
C            9.35816374924024       -2.50991146520954       -0.42766849410648
C           10.31442448474851       -3.46712957112159       -0.45875569149689
C           11.57401301958246       -2.80168667430895       -0.29760700084440
N           11.39171744304434       -1.44613927619129       -0.18092466175272
C           12.78819712680754       -3.46508860740785       -0.18315898909576
C           13.99510548668807       -2.80042028134287       -0.01868115839185
C           15.26008230017914       -3.46495443359636        0.06813195211253
C           16.20851446256429       -2.49857439852020        0.10019920727718
N           14.16817937994788       -1.43418742777234       -0.02241323658999
C           15.52190781884094       -1.24809115077314        0.02963582365278
C           16.18262949778622       -0.01887964990367       -0.04658546680690
C           15.50339214347610        1.20145027864220       -0.09715292160543
C           16.16944059812754        2.46115626980867       -0.19210130850074
C           15.20954627862655        3.41441576780447       -0.12127353609899
C           13.95930117392682        2.73249389203173        0.02341480006905
C           12.74341837461959        3.38073502594548        0.19384957282680
C           12.73619402656672        4.86026477923951        0.29657009175042
C           12.06720007530586        5.63318878136932       -0.65322700516215
C           12.06545219620789        7.01656838868745       -0.55540114149629
C           12.72628906528753        7.64337786798048        0.49229746975502
C           13.39250602960092        6.88091630543086        1.44210466364318
C           13.40075740895074        5.49758523919790        1.34511803614012
C           11.53501227325311        2.69986521501961        0.26522915890244
C           10.26773505677187        3.33949503547624        0.46575684748729
C            9.32323417197246        2.37352882412768        0.38182940649412
C           10.01468172954523        1.14309202816515        0.14640315048149
N           11.37146139778181        1.34606769374991        0.10717212721513
N           14.14955426488465        1.36899793750447        0.00138809453182
C           12.79758554171340       -4.94863526420354       -0.24622506324290
C           12.47336095640878       -5.60569323649369       -1.43304587957241
C           12.48719519193847       -6.99135653403624       -1.49177323326004
C           12.81909393841879       -7.73435313701831       -0.36709058553036
C           13.13999745964186       -7.08646631568027        0.81797502788087
C           13.13255093407582       -5.70084640869798        0.87949103857247
H            8.29263268001939       -0.06978305337080       -0.06347238116979
H            8.28847445223803       -2.61956006263055       -0.50981951145049
H           10.19153905429645       -4.53250903635887       -0.56708196776909
H           15.39460190069231       -4.53409939182206        0.08550623298435
H           17.27967361263289       -2.60646969368755        0.15618814235198
H           17.23526441016722        2.58379644287586       -0.29772845309225
H           15.32657638836748        4.48470789120721       -0.16877400039143
H           11.56127461096910        5.14563745985247       -1.47915534710885
H           11.54651871817218        7.60789665731457       -1.30169350909314
H           12.72245461939505        8.72481569743596        0.56825464076851
H           13.90836214101280        7.36563682189882        2.26358008957683
H           13.91234988540124        4.90263151402914        2.09352746242513
H           10.13210820438710        4.39301394030174        0.64887550861467
H            8.25246181878512        2.46503328379192        0.47169138389010
H           12.22380626823957       -5.02550084210807       -2.31443357406873
H           12.23885384664277       -7.49289356512299       -2.42056873922377
H           12.82771241381134       -8.81739921747436       -0.41414131072109
H           13.39738073504911       -7.66273235467997        1.69976083461991
H           13.37509265077849       -5.19538301367459        1.80760144029385
Ni          28.76943936834380        0.04176415137640       -0.01989331969245
C           32.16257657427150        0.06558894011980       -0.04902904583814
C           31.50591563372192        1.27155880734796       -0.17854266528515
C           32.18045075274992        2.52664633000551       -0.31233957488680
C           31.22386669911916        3.48399825601125       -0.30398876385157
C           29.96424165605520        2.81182521686950       -0.17398834116188
N           30.14686499423286        1.45255849048715       -0.11536429896004
C           28.74967279842507        3.46940262470035       -0.03298664438469
C           27.54280208024009        2.79796443876361        0.10168120289185
C           26.27753036235448        3.45778895360581        0.21581975859548
C           25.32942476656749        2.49060897446719        0.20620509397714
N           27.37021141347252        1.43307227843950        0.03967637570109
C           26.01651462312381        1.24450254217814        0.08282581171543
C           25.35623113941810        0.01944776785923       -0.04589487919414
C           26.03583423427857       -1.19740000372909       -0.14848786791840
C           25.37003167182548       -2.45200004537840       -0.29740740899775
C           26.33016875333027       -3.40717947975906       -0.26822040797438
C           27.58031661294344       -2.73183797621591       -0.09466687290839
C           28.79643195659042       -3.38663123182177        0.04651271946439
C           28.80415370556154       -4.86925695590636        0.08374175037021
C           29.47297717421172       -5.59910437575301       -0.89966286183293
C           29.47525086680397       -6.98545686096696       -0.86323341118901
C           28.81509134715812       -7.65831282601182        0.15594516986590
C           28.14906784517357       -6.93892138299802        1.13891173071123
C           28.14032707790123       -5.55265068008606        1.10334446133757
C           30.00468876742036       -2.70927109699290        0.14761428742891
C           31.27207327712262       -3.35683514832445        0.32002070597037
C           32.21627086197109       -2.38775847392545        0.28020067635570
C           31.52452856393511       -1.14825898832860        0.09956461580925
N           30.16785655092940       -1.34972512928224        0.05027108644237
N           27.38972770116143       -1.36871000991980       -0.05737875688166
C           28.73987552893337        4.95426549852516       -0.03279862822538
C           29.06673468196865        5.66134851536974       -1.18978014787570
C           29.05243935109409        7.04825038058762       -1.18954431275302
C           28.71741773110407        7.74262563279329       -0.03511328808936
C           28.39389440091929        7.04480020803076        1.12052367729008
C           28.40184907639720        5.65782268711967        1.12307463744288
H           33.24633891166611        0.07336250953840       -0.05361704318385
H           33.25025211162003        2.64005831885955       -0.38765277882247
H           31.34653845400695        4.55309739789930       -0.36603097426718
H           26.14256431203329        4.52516886277687        0.27864313040807
H           24.25819943343636        2.59567128850896        0.26613111724803
H           24.30419656833932       -2.57023154669644       -0.40783905825868
H           26.21333216536915       -4.47444518751037       -0.36182489177592
H           29.97836735537166       -5.07524928663403       -1.70339347766711
H           29.99405720382451       -7.54294095452683       -1.63522455342632
H           28.81930392462234       -8.74205353455030        0.18388850709185
H           27.63374761697874       -7.45975534186777        1.93832660663030
H           27.62892702622088       -4.99164211059901        1.87765624502942
H           31.40797541466041       -4.41745458990996        0.45581646736882
H           33.28701275244535       -2.48282513102048        0.36663778792508
H           29.31865928875769        5.11927669016665       -2.09445576695754
H           29.30289069182718        7.58892189989962       -2.09553562738510
H           28.70841527734792        8.82668984784851       -0.03607919255739
H           28.13407170061129        7.58294520075679        2.02538116250935
H           28.15735274827252        5.11326922861740        2.02827980523696
C           21.38331660132179        0.00136043592998       -0.08990283144623
C           20.15553489144183        0.00006697383894       -0.08929449548444
C           18.81061742152405       -0.00553976805525       -0.08293169374144
C           17.58741869573869       -0.00990497388882       -0.06698591682457
C           22.72823534325224        0.00717925688834       -0.08284669553169
C           23.95144339509101        0.01077640980931       -0.06685586503291
