183
 energy: -312.868300084532 gnorm: 0.000583229647 xtb: 6.5.1 (b24c23e)
Co          34.30036867889232        0.02817011090945        0.03023033658422
C           30.93281143489063        0.04947965015330        0.09180048080185
C           31.58157908152565        0.98379284256683       -0.68829063724531
C           30.91844039731305        1.94454653731220       -1.51542701894369
C           31.86993866418851        2.80615887658630       -1.94896478737320
C           33.11027938255381        2.38020996749922       -1.37010416084740
N           32.93362497706165        1.21929003321126       -0.66287134278916
C           34.28825920725730        3.11946190732460       -1.40179220781640
C           34.28206771066579        4.46580972794828       -2.01036447206218
C           35.17051223344160        4.78859050179641       -3.04002403650712
C           35.16956998370785        6.04900327210780       -3.60950789161271
C           34.28550075561759        7.02746011179604       -3.14658971819442
N           34.25654171063311        8.27746720626444       -3.73768335042964
C           33.39118575574900        6.71227761935837       -2.11985405104840
C           33.39124582083110        5.44602950530798       -1.56364486092939
C           35.46798555511705        2.62656858646735       -0.86035070494999
C           36.69400670770812        3.36219863556239       -0.78456787463421
C           37.65084313225962        2.48827053914197       -0.38601886142732
N           35.66214436282159        1.33236664855426       -0.43525265045348
C           37.00602135185500        1.22609753365483       -0.21169946281230
C           37.68802061457226        0.02681017066480        0.01319714714287
C           37.00851403963417       -1.17541615582794        0.23186787274048
C           37.65456546405591       -2.44028203770125        0.38008845615331
C           36.69845558780402       -3.32322207472662        0.76038489748400
C           35.47326748921942       -2.58873628551664        0.85881380295087
N           35.66586217169931       -1.28603782517638        0.45797625517308
C           34.30092350975247       -3.08599984913656        1.41146708837821
C           34.29396513077962       -4.44394382760329        1.99371149418588
C           35.20033730185108       -4.79705438710317        2.99740737129977
C           35.19380930304423       -6.06714702150290        3.54502122453233
C           34.28490500679474       -7.02437165693289        3.08608195925679
N           34.24998793591818       -8.28378741448472        3.65748778553058
C           33.37216899788984       -6.67870516536563        2.08579624791304
C           33.37852295665670       -5.40320618372739        1.55117538513723
C           33.13037265030520       -2.33402070820619        1.42945214827648
C           31.90717359274443       -2.75283009689934        2.04851266818754
C           30.95411245015946       -1.86556327517073        1.67430266643133
C           31.59869100390528       -0.90035347149970        0.83757497153725
N           32.94460876535747       -1.15747617255064        0.75184187731717
H           29.84937170381275        0.05857979462977        0.11528963634269
H           29.85993186108105        1.94666662037442       -1.72228086193768
H           31.75429337469628        3.65700541359252       -2.60075225576310
H           35.85302756005555        4.03237011075999       -3.41214060571128
H           35.85569308629191        6.28338513719851       -4.41607835522206
H           35.10219174009318        8.54566602647233       -4.21481359491430
H           33.85427027816317        9.00887575233042       -3.17387739997598
H           32.70130035867833        7.46663839778793       -1.75751369900347
H           32.70868401520295        5.21688474532071       -0.75257562399990
H           36.79907987865812        4.41201831674988       -1.00526735576274
H           38.70107850251492        2.66847384051730       -0.22263184706731
H           38.70452505707822       -2.61662339793819        0.21040628505986
H           36.80419360151653       -4.37777389438488        0.95694333785210
H           35.90099446982104       -4.05685003113263        3.36796838267274
H           35.89404087461892       -6.32501095353355        4.33204458037962
H           35.10388750467479       -8.57320829379081        4.10680735276554
H           33.82336365731194       -8.99877968709259        3.09040638376747
H           32.66238414681814       -7.41639002516325        1.72757942885509
H           32.68051460275930       -5.14958153492664        0.76080907582242
H           31.80368757792914       -3.61568688860425        2.68641077498910
H           29.90516795534576       -1.85464651301841        1.92492841456880
Co          55.93584715859674       -0.02977238579711        0.08372867077344
C           59.30670651177982        0.01122598507063        0.19385472070601
C           58.65498683697184       -1.16267727061088        0.50720567125019
C           59.32096596628784       -2.38501675896302        0.83764882510325
C           58.36423980152978       -3.24599001722268        1.25936193518888
C           57.11755903796155       -2.54040106801114        1.20363257998165
N           57.29841718030978       -1.28858528319419        0.67403314644723
C           55.92527226314493       -3.01797167605226        1.73577384184404
C           55.92430502577263       -4.30341269566723        2.46628433797012
C           55.08178722885946       -5.34778977831738        2.07607088115419
C           55.07702312980629       -6.54960228102432        2.76110114979542
C           55.90868902391254       -6.72850996422771        3.86976613422900
N           55.93364943161535       -7.94147584877823        4.53518058072315
C           56.75738832388141       -5.69083009176594        4.26429690804526
C           56.76332175794128       -4.49609714596284        3.56734920120235
C           54.73912890988524       -2.30749724747474        1.61485408484622
C           53.49692300863946       -2.70927943139611        2.20325722447123
C           52.54722808557202       -1.86922238157733        1.72473172631352
N           54.55981907482203       -1.18593894623518        0.83790497070895
C           53.21339700712242       -0.95173736912902        0.85586490020092
C           52.54513813082063       -0.02432849424332        0.05445335124185
C           53.22914799710301        0.88562419919131       -0.75414467846587
C           52.58112416791685        1.77786029090500       -1.66193897207946
C           53.54524468197018        2.58543021109152       -2.16685112548558
C           54.77624983999596        2.19781157680280       -1.54597223800290
N           54.57713112500170        1.10701252747126       -0.72975312498482
C           55.96356240561946        2.90708987998812       -1.65730680511068
C           55.99022796598623        4.15910895862907       -2.44323007121799
C           55.13044575899163        5.21805062768484       -2.13967043935357
C           55.15495943756287        6.38654567037577       -2.87982613952387
C           56.03533336778310        6.51639498487029       -3.95723332231680
N           56.08747099075606        7.69664366942728       -4.67795967320206
C           56.90437977022167        5.46556189155148       -4.26255447188759
C           56.88032170091094        4.30470203885759       -3.51101349117284
C           57.13324777248261        2.46928918886507       -1.04551272531616
C           58.36408793585053        3.20404686499372       -1.04311910627196
C           59.30608172097594        2.38941247107014       -0.51074046784819
C           58.64803220107328        1.16149724283530       -0.18433042514505
N           57.30450082254602        1.24432942501649       -0.45528978914912
H           60.38953325597497        0.02692521912894        0.23566196854801
H           60.38442353707121       -2.54382716735224        0.75361197102802
H           58.47956854306102       -4.26811667083711        1.58190203313931
H           54.44022997202800       -5.22074086018321        1.21096252233270
H           54.42694493394376       -7.35672731892760        2.44132894162108
H           55.10391454998033       -8.50311478536002        4.43062284570972
H           56.28529298961661       -7.90369425115497        5.47846794611504
H           57.40710132632170       -5.82448016227402        5.12237911187890
H           57.40979569960886       -3.68858340840069        3.89324446742879
H           53.37743010854837       -3.52693502551523        2.89536543645487
H           51.48880275841196       -1.86091945343562        1.93027848253786
H           51.52478409348391        1.77217539895159       -1.87810700188160
H           53.44137744033035        3.37454446992209       -2.89369183130971
H           54.45187999552012        5.13043190082737       -1.29822102149242
H           54.49029877399187        7.20561801936103       -2.62747826330547
H           55.25152861504815        8.25761840783468       -4.63881727098429
H           56.47996188654503        7.61460005131050       -5.60224755832659
H           57.59377549322913        5.56241389874693       -5.09420175642854
H           57.54435620416623        3.48622640977400       -3.76675154065997
H           58.47861473914758        4.21410168988912       -1.40201970585851
H           60.35603845767977        2.58065000234910       -0.35509775572174
C           39.09229257965497        0.02684140585728        0.01272501011104
C           40.31010527443419        0.02415512148051        0.01324593706070
C           49.92199051650078       -0.00841600884666        0.04958863664926
C           51.13888360662811       -0.01484126652367        0.05156724793333
Co          45.11492732455755        0.01959714648239        0.06992434386246
C           41.71438692231610        0.01689883939355        0.01213670280886
C           42.39857361774465        1.06859858946555       -0.60360494124971
C           41.73817677973388        2.15575782366384       -1.25243610319401
C           42.69574368269011        3.06387599754186       -1.55863916401536
C           43.93995792967017        2.52019883201691       -1.10580576401418
N           43.74921277164681        1.27082951605911       -0.56061916923912
C           45.12819812288875        3.23658052027409       -1.07188213911717
C           45.13196755653787        4.64477373980316       -1.53233203595599
C           44.86606895486963        4.96192730132459       -2.86592324078977
C           44.87563712458310        6.27709598113729       -3.29606262750358
C           45.14825284475292        7.30839910592078       -2.39347260352101
N           45.11072904359628        8.62768123274251       -2.80916328908615
C           45.40143430410606        6.99892179737032       -1.05458846200763
C           45.40097350791196        5.68057156441496       -0.63493910287706
C           46.31491615082111        2.67895979018620       -0.61503763764571
C           47.56643498008096        3.37374566282609       -0.60123446655810
C           48.51839466898699        2.45810837252993       -0.29901365587346
N           46.49639091659645        1.35379947720097       -0.29407602717679
C           47.84549465022019        1.20936458904507       -0.13442048480881
C           48.51600063627188       -0.00152832032122        0.05052359000513
C           47.83606891245276       -1.20751999066967        0.23293732691406
C           48.49515683948169       -2.46793418395239        0.35913591416178
C           47.53440434262274       -3.37980630279526        0.64628880855660
C           46.29548558420653       -2.66599598373411        0.71088411978436
N           46.48548174893923       -1.34167631463297        0.39090230235818
C           45.09887194055337       -3.22504017605355        1.14041428819999
C           45.08709294268084       -4.62687798039434        1.60879012582005
C           44.24911974337306       -5.56975273180505        1.00666832567332
C           44.24250011684003       -6.88636897498777        1.42996028128651
C           45.07475827865004       -7.29038107555573        2.47748458167130
N           45.03722130640710       -8.59551364547150        2.93460345709820
C           45.90189647930586       -6.34986976969633        3.09754310110369
C           45.91194211912875       -5.03799252980690        2.65947488567290
C           43.91140582892899       -2.50446458111518        1.14219114653170
C           42.67141823651586       -3.00663733064605        1.64965851340438
C           41.72080532576872       -2.09537453079755        1.32712729191171
C           42.38602273571860       -1.03986680131014        0.63355242292456
N           43.73158702981416       -1.26651519382219        0.57086463164085
H           40.67626181731054        2.21139043744943       -1.42890680009606
H           42.57623861269085        4.02675933953398       -2.02761810839387
H           44.67068243928785        4.16569298112203       -3.57572573219728
H           44.67532590274207        6.51174871964557       -4.33578713092370
H           45.25304849234397        8.76912532506954       -3.79631791109460
H           45.61830375536756        9.27372326152108       -2.22620463862012
H           45.59960143133809        7.79612412204150       -0.34650805655118
H           45.59121201091354        5.44797704549374        0.40705741620004
H           47.69400813157920        4.42145939077593       -0.81925209530021
H           49.58349857530241        2.59762839083586       -0.20672857593391
H           49.55572384542622       -2.62057870962026        0.23958379471456
H           47.64575490822363       -4.44080621621606        0.79953361122778
H           43.61458864055239       -5.26843147215200        0.18041092851911
H           43.59532734234605       -7.61069726477901        0.94752608691783
H           45.85677397480985       -8.89575247679721        3.43778245917410
H           44.69687914204952       -9.27135899807783        2.26949251298322
H           46.53689869158124       -6.65392945794606        3.92250510794484
H           46.54959565845832       -4.31245633000059        3.15251604329479
H           42.55388877393424       -3.93286469601629        2.18810755097496
H           40.66344425956473       -2.12269935130906        1.53524556173215
