132
 energy: -245.719785175400 gnorm: 0.000720138935 xtb: 6.5.1 (b24c23e)
Zn          13.17388600119906       -0.01943295297427        0.00798882138090
C            9.76797240767817       -0.00268317638246        0.16576922693642
C           10.39972958168865        1.22762199736854        0.30031457086318
C            9.72816997589136        2.48549125591819        0.47365424747149
C           10.68825649163076        3.43885596170189        0.56554971158326
C           11.95992105031176        2.77278810437059        0.46038748080019
N           11.74914337835622        1.43591474575074        0.29053686956704
C           13.21215585687665        3.39744504492695        0.50247310734876
C           13.22846571073887        4.86709708428229        0.71376460305478
C           12.71158206979858        5.42029063466258        1.88182523254346
C           12.72653094675931        6.80069621845940        2.07830506910248
C           12.16252588999913        7.32907314109427        3.34539622857349
O           12.22880315111849        8.66483130095966        3.44607217303356
O           11.68469798948896        6.64607339928983        4.21490530298808
C           13.25921113287599        7.64043996227032        1.10016606830764
C           13.77357483304667        7.09241728845557       -0.06434113226973
C           13.76096407609383        5.71822135029719       -0.25759458713005
C           14.44940846309924        2.75886129672669        0.36593122492287
C           15.73094299768366        3.40046113192330        0.47014729051365
C           16.67431057442232        2.44066599505501        0.29262524867849
N           14.63907658773139        1.42171830103977        0.14046946453398
C           15.98012590300910        1.20355861355774        0.08646496018631
C           16.60746069653112       -0.03859829520489       -0.14035338311250
C           15.94970315461611       -1.27243459519325       -0.31887093085825
C           16.61011921904108       -2.51646210389497       -0.58495452109715
C           15.64435999498454       -3.46536941405531       -0.68399553169726
C           14.38336889582339       -2.81024211061924       -0.46956285512477
N           14.60623956544684       -1.47523577239790       -0.26200982718034
C           13.13240892884451       -3.43659027032932       -0.49106502268184
C           13.11347438789701       -4.90777884906800       -0.69238705095891
C           13.72708749321605       -5.75574339424359        0.23251689468511
C           13.70540057099602       -7.13207593048616        0.05445765623164
C           13.07338036044178       -7.67954901481570       -1.04935738954279
C           12.45795845651348       -6.84309848164888       -1.98204678513494
C           11.79132930097301       -7.46853658862423       -3.15114089746091
O           11.22303291139401       -6.58358945689316       -3.98371258289930
O           11.74787668564891       -8.65499449544584       -3.35457159547612
C           12.47812264743814       -5.46134260862123       -1.80193164240009
C           11.89563892990012       -2.79944335004011       -0.33251265407091
C           10.61374017761741       -3.45378181581372       -0.31026277405972
C            9.67574245191448       -2.49102004694606       -0.12925630450141
C           10.37227102353359       -1.23906354599098       -0.02760832991248
N           11.71418542865532       -1.45998058075943       -0.14985130774778
H            8.68368448816244        0.00235979722307        0.21932237007730
H            8.65757178665617        2.61178717470461        0.51197836672283
H           10.55184275196592        4.50169587838922        0.68509709518025
H           12.30543067083216        4.78197701278398        2.65886078692735
H           11.84233466194709        8.92890181962657        4.29676118065956
H           13.26806859113648        8.71271484329890        1.25340904771192
H           14.18645417507113        7.73933305139177       -0.83011568707757
H           14.15390327367186        5.29723104934713       -1.17638012668921
H           15.88792394453928        4.44853101627260        0.66836241724363
H           17.74676580495100        2.55252005716165        0.30648840036833
H           17.67647164441790       -2.63922745135510       -0.68890546801634
H           15.77177089571529       -4.51464982004795       -0.89674351134865
H           14.21037663270005       -5.32970588701299        1.10470817910859
H           14.18217199425488       -7.77726941906435        0.78355786897374
H           13.04633821421680       -8.75229017355456       -1.20370240612589
H           10.81133351263604       -7.07101767726956       -4.71562471158187
H           12.01098157113021       -4.81390942388994       -2.53465175805286
H           10.45648321058948       -4.51588707676206       -0.40937129366066
H            8.60550269270908       -2.60754988071973       -0.06078911421009
Zn          31.78134357154786        0.01305032772047        0.01166594407769
C           35.18705173705024       -0.04994554209944        0.16053356686213
C           34.55755258134782       -1.25777175960259       -0.11466231850847
C           35.23119999725962       -2.50250945804950       -0.35992145089215
C           34.27273946049202       -3.43490863346543       -0.58601550724162
C           32.99999244924910       -2.77262099620988       -0.47035222074978
N           33.20856187757918       -1.45322533782536       -0.19437525767078
C           31.74868437206892       -3.37832152687218       -0.63586692360681
C           31.73342367346262       -4.83660085333570       -0.91504014036914
C           32.25014018734868       -5.74010162175273        0.00919987227186
C           32.23362969290493       -7.10937852500438       -0.25395336453505
C           32.79627928260986       -8.02179829703526        0.77257387482986
O           32.73285430449176       -9.31731306849794        0.43121112731910
O           33.27122489469261       -7.65953194460827        1.81853412082879
C           31.69961001776688       -7.58487754134259       -1.45162497882715
C           31.18577572915897       -6.68739609454605       -2.37439837864964
C           31.20002520395569       -5.32506890936429       -2.11025486393081
C           30.51052869876785       -2.73164559234166       -0.55740238180837
C           29.22993489532006       -3.37399120461027       -0.66852537645443
C           28.28509802775563       -2.41027450319108       -0.52311992939349
N           30.31878597980629       -1.39438782049448       -0.33417536521053
C           28.97738396866719       -1.17257251421127       -0.31410994160722
C           28.34768549882656        0.07427457496447       -0.12261493317358
C           29.00316524891701        1.30018427833328        0.11089512659151
C           28.34070662912045        2.56186180809084        0.26540795731372
C           29.30503454121801        3.49274212506183        0.48112814968030
C           30.56708393349080        2.80551471706857        0.46985270223178
N           30.34631158428562        1.47545755907867        0.23055247522906
C           31.81715801063799        3.40618852479107        0.65418678172398
C           31.83499581926472        4.86254837824322        0.94406787321226
C           31.22238312244431        5.36182364072775        2.09570226498209
C           31.24542798969222        6.72069661566966        2.37754998356265
C           31.87777439748499        7.59855302516324        1.51321822213564
C           32.49193233295131        7.11270153982743        0.35779911185969
C           33.15995614908052        8.08531686659867       -0.54223039537011
O           33.72980390016531        7.52033064279795       -1.61718083722558
O           33.20262610574166        9.27324825186525       -0.34779397133284
C           32.47023252419878        5.74810194832548        0.07602288938459
C           33.05480071896533        2.75367220094574        0.59736905914139
C           34.33553978293634        3.36674892850257        0.83338641219202
C           35.27502368530951        2.39877351023371        0.69235508586559
C           34.58059396883612        1.18111118256899        0.37949376874930
N           33.23839493447317        1.42803117628281        0.33381175930058
H           36.27127028855541       -0.07053573886546        0.21171113479910
H           36.30198453668240       -2.63297933578908       -0.36275103955977
H           34.41085310971099       -4.47840513454544       -0.81964598808595
H           32.65696164617067       -5.38967416281368        0.95148909387661
H           33.11826669550147       -9.84422063840655        1.14995710807936
H           31.68882809374426       -8.64873934962312       -1.65508316329719
H           30.77166798394713       -7.04973603569722       -3.30854266535309
H           30.80733781391990       -4.62776262062987       -2.84193994745170
H           29.07440323259591       -4.42958115469146       -0.82315404366952
H           27.21281264913102       -2.52212005717199       -0.54671381928309
H           27.27411379327471        2.71016669588770        0.20740891671282
H           29.17598055530282        4.55380376496665        0.62253151377923
H           30.73910456319146        4.67437635337036        2.78100951382652
H           30.76986456478808        7.09229651677598        3.27805854218322
H           31.90646323101179        8.66266195263693        1.71859502369759
H           34.14218126906739        8.21984777941467       -2.14953994021480
H           32.93643650710812        5.37547780063008       -0.82843625461558
H           34.49101241723115        4.40342242259752        1.08586078102914
H           36.34497761487380        2.48806313544575        0.79673903019207
C           18.01160243685857       -0.04319120882906       -0.18581591322185
C           19.23609430974497       -0.02869903351974       -0.21149411118040
C           20.57836048996512       -0.01012503214574       -0.22787750819616
C           21.80868921156910        0.02440865661628       -0.23224530936849
C           23.14618102456114        0.04908669623807       -0.22646382072282
C           24.37669094020011        0.07549698894947       -0.21229896477752
C           25.71891960451420        0.08637895759398       -0.18978596667428
C           26.94344706696365        0.09072483452652       -0.16326977977683
