264
 energy: -494.555320826354 gnorm: 0.000402717656 xtb: 6.5.1 (b24c23e)
Zn          50.06500342979515       -0.03967732011773       -0.00214769599831
C           46.65680385617748       -0.12913402386006        0.02052512782365
C           47.28492358186071       -0.16852467164660        1.25933508199170
C           46.60869903443599       -0.20709952083912        2.52592329209182
C           47.56568829068577       -0.21507331255317        3.48682117308917
C           48.84003022566061       -0.19208090571816        2.81778751709412
N           48.63408319436198       -0.15687757401638        1.47003488667667
C           50.09015215018770       -0.17264815129160        3.44866510543175
C           51.33031520058497       -0.10943723045311        2.80327379755990
C           52.60950627958105       -0.14554137728344        3.45763774372190
C           53.55683173983967       -0.08892948744053        2.48744445878284
N           51.52519046867545       -0.04254192424626        1.45007092748538
C           52.86783704760798       -0.02502611791535        1.23173532351664
C           53.49967921253756        0.03288116433139       -0.02589345527455
C           52.84836816823604        0.07566630774790       -1.27412727558658
C           53.51782223834439        0.10984714001447       -2.54145358667071
C           52.55551361460490        0.13532982544036       -3.49819832105584
C           51.28666718637586        0.12434048590183       -2.82318082812971
C           50.03635865314633        0.12248514265069       -3.45203386536301
C           50.02312558431621        0.19874414993668       -4.93306317749748
C           49.47395476042714       -0.83901533915767       -5.69122090146636
C           49.46186357846452       -0.76503596868016       -7.07173871117795
C           49.99457934082485        0.35025867368664       -7.72147077527206
C           49.95565694579059        0.38516621938389       -9.20233418227880
O           50.49796932590527        1.49441714606532       -9.72841235328073
O           49.48788226166586       -0.48521128183081       -9.89207472266590
C           50.54262728467523        1.39012321799506       -6.96953591686959
C           50.55764618092130        1.31137864653851       -5.58806673295523
C           48.79595537449490        0.05483956907815       -2.80537668675542
C           47.51125204208773        0.09607449346741       -3.45338238407649
C           46.56938282414427        0.02070839470758       -2.48051290038641
C           47.26542156986510       -0.05631103149619       -1.22650283310466
N           48.61115889455021       -0.02896884490888       -1.45670362397038
N           51.50247565434359        0.08015308954532       -1.47222924315759
C           50.09994010656361       -0.22374631245344        4.93093027196854
C           49.57290320651310       -1.32864515637934        5.60511480472253
C           49.58261316196216       -1.37378056141750        6.98693521900347
C           50.11501071837262       -0.31271528379163        7.72198396921550
C           50.09954671407594       -0.40550229291711        9.20090709226041
O           50.63439690083912        0.66289378862442        9.81200847375833
O           49.65556361480320       -1.33913763776466        9.81994325497970
C           50.64092559052034        0.79378539559353        7.05410574052476
C           50.63446639648944        0.83419986152837        5.67090311772808
H           45.57132785386153       -0.14471602582653        0.02830839801247
H           45.53740172722647       -0.21821528554010        2.65177185581323
H           47.42562938675178       -0.22317931820587        4.55587087211637
H           52.76171154871538       -0.21968764713610        4.52234455756816
H           54.62891835706280       -0.09567344838477        2.60345268731817
H           54.58798294427096        0.10750549051006       -2.67428893265706
H           52.69112560840890        0.14568283354530       -4.56767673885322
H           49.07158360155221       -1.71174058394560       -5.18943470274599
H           49.04184393146887       -1.56927277760102       -7.66582655676191
H           50.43275809657053        1.43870983450316      -10.69553879812463
H           50.95386294123136        2.25927580882031       -7.46921915136159
H           50.97182177942722        2.12537115344925       -5.00371175048143
H           47.35434579943817        0.18466909666561       -4.51643809530178
H           45.49622291644582        0.02415445042135       -2.58985471840432
H           49.17061270975272       -2.15919103052536        5.03620019087167
H           49.17997224412851       -2.23061098625277        7.51592859026975
H           50.58600861827942        0.52401086766326       10.77172298322679
H           51.05202133547307        1.62111134514471        7.62038117492836
H           51.03158354054447        1.69970571102087        5.15247487564108
Zn          98.22896096052135       -0.02802969451663       -0.04976921920200
C          101.63697025031497       -0.12428417867431       -0.08476993527748
C          101.00841553467392       -0.01852011619087       -1.31947256894957
C          101.68419281707406        0.08682022244857       -2.58249179830302
C          100.72694428840836        0.19302699362548       -3.53729265695055
C           99.45287976432563        0.14365776623755       -2.86917994065009
N           99.65925515436579        0.02207833160148       -1.52653976735462
C           98.20280160907845        0.24224743677808       -3.49266059314239
C           96.96300370170492        0.23711862886583       -2.84350958652095
C           95.68361528067145        0.28557813121176       -3.49659572945855
C           94.73669275948446        0.23332797884661       -2.52572546215221
N           96.76860527154363        0.14575587868201       -1.49164004554259
C           95.42613550074670        0.14479627893875       -1.27178327209959
C           94.79448906516605        0.05354672513395       -0.01597526077151
C           95.44600367575424       -0.05730753937634        1.22793381848565
C           94.77691639484475       -0.17360900382604        2.49057085734047
C           95.73948581796805       -0.26455289675510        3.44303308928274
C           97.00818184255098       -0.19711784593450        2.77094481026001
C           98.25859491405809       -0.27458121329804        3.39480975548322
C           98.27234883700356       -0.37274021209991        4.87451998754612
C           98.82207689264709       -1.49210399992484        5.50551542024988
C           98.83535476535239       -1.58016724909721        6.88520285415267
C           98.30315437368378       -0.54865081474489        7.66140739306026
C           98.34372209601408       -0.68712885090939        9.13623626872929
O           97.80119673872038        0.35249348101166        9.78883919383893
O           98.81308256139789       -1.63179319003212        9.71881003736024
C           97.75424881653241        0.57190271242957        7.03683584407243
C           97.73816892623212        0.65544565147276        5.65565685608175
C           99.49879874679412       -0.26694069347516        2.74425466425834
C          100.78372995391574       -0.30342643241134        3.39211472122205
C          101.72525501380198       -0.26606462951114        2.41672654162942
C          101.02880870432691       -0.19524448451753        1.16257688413410
N           99.68316367862808       -0.19274069360923        1.39496372376984
N           96.79197707719074       -0.07967855275408        1.42447131680095
C           98.19262591137975        0.36220691243447       -4.97093708665159
C           98.71284796794940       -0.66116916268645       -5.76792276812940
C           98.70222743765464       -0.54759252923832       -7.14577555547290
C           98.17597227969733        0.59391194271225       -7.75376584100473
C           98.18985078711214        0.67099483268614       -9.23351985147080
O           97.66345606879270        1.80657756281451       -9.71758848916321
O           98.62587972711586       -0.18903762553478       -9.95615701633712
C           97.65726757091902        1.61976149057708       -6.96285219126271
C           97.66436309435485        1.50122882468323       -5.58415079746077
H          102.72240182422935       -0.14149458395057       -0.09490717184414
H          102.75541248725629        0.08643738656474       -2.70948700242962
H          100.86665360708628        0.30761624310248       -4.60026489320855
H           95.53079284415342        0.33794147751214       -4.56251203163682
H           93.66457421152809        0.24648368857929       -2.64091363538934
H           93.70678828721475       -0.18949603640412        2.62271042517711
H           95.60419326783204       -0.38189813969319        4.50613695368729
H           99.22399415729339       -2.30006976836761        4.90468444507265
H           99.25599145331125       -2.44831253473887        7.38072710249934
H           97.86714204602029        0.18430810612485       10.74281212853216
H           97.34328081322609        1.37648844125214        7.63512897206759
H           97.32354396705099        1.53220302833015        5.17091966869061
H          100.94107762300358       -0.33974372860018        4.45816613202147
H          102.79844256746111       -0.27695398597052        2.52529665971818
H           99.11054656386104       -1.55373003283253       -5.29835491934514
H           99.09952225227995       -1.34047128539708       -7.76997513196076
H           97.71091096554666        1.77830988527700      -10.68692114927505
H           97.25083389429331        2.50895246857260       -7.43012568749498
H           97.27263227367021        2.30391710221589       -4.96948416219768
C           58.70392810491042        0.02052522402933       -0.04954836399938
C           57.47622489161034        0.02891509426300       -0.04872509690313
C           56.13037690979327        0.03405808276783       -0.04290628954983
C           54.90703478719553        0.03653916940937       -0.03623887888520
C           60.04965052534452        0.01445654802291       -0.05006118287577
C           61.27312690330014        0.00725121262111       -0.04742887528274
C           74.76132960184727        0.02554190602653       -0.00672002875031
C           73.53267428051367        0.02871167336080       -0.00724655119260
C           72.18887438552419        0.03009648367216       -0.00929086441504
C           70.96459066953051        0.03196606679685       -0.01116814406510
C           76.10513909335816        0.02388993726842       -0.00572003479326
C           77.32944678371447        0.02220268121406       -0.00576863741393
C           90.81797822672117        0.05920179178356        0.00467292913664
C           89.59023305125230        0.05202426849060        0.00628067604935
C           88.24455120422091        0.04559353681403        0.00595394162895
C           87.02104905228228        0.03893322606183        0.00400624274874
C           92.16382366472034        0.06164700451003        0.00133677723170
C           93.38719040011654        0.06153770410516       -0.00492725028876
Zn          66.11972592281751        0.01893448509588       -0.02574093098921
C           62.67991353390624        0.00923043704023       -0.04273744868678
C           63.32631738569768       -1.24190575686211       -0.00571468879536
C           62.65261408826665       -2.50685258715262       -0.00605962425538
C           63.61113635903284       -3.46694545150662        0.04218221632242
C           64.88038842706253       -2.79548362576749        0.08197128575365
N           64.67090278223587       -1.44356828219545        0.04099380677307
C           66.12871543980451       -3.42652705674325        0.12886336168799
C           67.37333281002012       -2.78733579125825        0.11829767230124
C           68.64597504365996       -3.44560693835031        0.21985926119748
C           69.59946839389156       -2.48005351427782        0.17981522859276
N           67.57621676254342       -1.43592458414963        0.03484001689007
C           68.91908604770713       -1.22425222110756        0.06326809338100
C           69.56013350490089        0.02896146996378       -0.01452010162544
C           68.91282260731261        1.27868672166592       -0.09548450559568
C           69.58706432653857        2.53854933865559       -0.20393921045177
C           68.62850172591641        3.49886504362770       -0.24929845693243
C           67.35885445463450        2.83313148861451       -0.15987275920450
C           66.11069864003113        3.46493294983484       -0.18046349091277
C           66.10596471273701        4.94710919368568       -0.24435177228417
C           66.67030848526237        5.70159315137851        0.78769112441934
C           66.65964579347875        7.08294598265914        0.72922685592581
C           66.08958131088693        7.73654030984908       -0.36504995834290
C           66.10216788602490        9.21845942869974       -0.38242368807499
O           65.52452794136624        9.74798704719720       -1.47185663885892
O           66.57745052972190        9.90548473113321        0.48586624739762
C           65.52865112839525        6.98796004311779       -1.40037644065678
C           65.53566886012727        5.60558842123279       -1.33679261642434
C           64.86571395237831        2.82650152672736       -0.14549559353016
C           63.59245555090376        3.49072390186583       -0.11553127245749
C           62.63898468575758        2.52512634709225       -0.07740166179297
C           63.31980526008502        1.26405977332763       -0.07377761551768
N           64.66351057881532        1.47339152170320       -0.10901186279201
N           67.56861356027534        1.48268378176510       -0.07777860437423
C           66.13343541137436       -4.90860976911530        0.19578443536563
C           65.55886015408873       -5.56999282056814        1.28447948539178
C           65.56770496223359       -6.95122140685277        1.34631652807948
C           66.14641205708875       -7.69797829589146        0.31820928885742
C           66.12809059215886       -9.17598901126417        0.42784580030085
O           66.71456427584339       -9.79874742900415       -0.60601025803260
O           65.63992934065875       -9.78435260760871        1.34618511657068
C           66.71924027664238       -7.04273961956270       -0.77234977534252
C           66.71385932426379       -5.66003948226019       -0.82925559509139
H           61.58278426304795       -2.63610205810454       -0.04563296361455
H           63.47258936528664       -4.53604543550291        0.03912496592957
H           68.79011951603199       -4.50907747099962        0.32195580507689
H           70.66988132678868       -2.59961334590956        0.23178239761929
H           70.65720719004955        2.66418699769196       -0.24645191024682
H           68.76732599033558        4.56345891237764       -0.34704844582075
H           67.10223399579016        5.19614453526087        1.64400133324796
H           67.09012622322128        7.67447730682606        1.52979993642287
H           65.57291726620770       10.71544499539923       -1.40543200255961
H           65.08923399945773        7.49083872174240       -2.25373099279846
H           65.10994906193599        5.02380074980378       -2.14663063106842
H           63.44756029621711        4.55898849695048       -0.11116732752962
H           61.56819979874914        2.64867422451819       -0.04672747352184
H           65.11994395447378       -4.99166173990291        2.08957532118768
H           65.12870069105797       -7.47061062912909        2.19108998529351
H           66.66033844267933      -10.75683197113535       -0.45797764182547
H           67.16641814450644       -7.61822595604749       -1.57424233856261
H           67.14851464376598       -5.15125335853321       -1.68235346197307
Zn          82.17422662219967        0.02923489999645       -0.00177923410333
C           78.73391484304886        0.02362768281590       -0.00538779133454
C           79.38005433399823       -1.22880186455265        0.03048842054195
C           78.70481123629969       -2.49276471437533        0.03261527563917
C           79.66240275665642       -3.45402559562647        0.07778164799546
C           80.93248333085927       -2.78401412056604        0.11373704523304
N           80.72394549201887       -1.43147440651721        0.07310598223631
C           82.17999519702444       -3.41601508141755        0.15782096704897
C           83.42555294590045       -2.77785744381386        0.14537706839874
C           84.69756582463397       -3.43750818256563        0.24634827986774
C           85.65214616401681       -2.47312384129921        0.20443187842990
N           83.62945483244278       -1.42720727598236        0.06011667084431
C           84.97320679290667       -1.21652691541764        0.08666238080135
C           85.61431886362688        0.03510970519563        0.00220244628759
C           84.96890138005585        1.28437598817153       -0.08584313128798
C           85.64414374313752        2.54290169190678       -0.20471158143170
C           84.68661907228463        3.50401432478077       -0.25231725033852
C           83.41646838534659        2.84046530423492       -0.15339528833171
C           82.16884563402624        3.47442448360113       -0.17036214086694
C           82.16700471059404        4.95621860061396       -0.24142712852947
C           82.74156562375893        5.71415782400102        0.78246923160473
C           82.73813183935137        7.09510773454763        0.71526317944824
C           82.16489966800788        7.74487478031851       -0.37964273877334
C           82.19086342316807        9.22645099400129       -0.40923640638032
O           81.61022694431053        9.75239633084770       -1.49873602561145
O           82.68031778375823        9.91595323587652        0.44916069453377
C           81.59122177496823        6.99293429870470       -1.40546596403673
C           81.59116775052313        5.61093268972424       -1.33319315128726
C           80.92346621357686        2.83826904743989       -0.12588518073060
C           79.65127865076592        3.50423358238583       -0.09112661529471
C           78.69678210873275        2.53991185537889       -0.04484771303545
C           79.37611732228017        1.27816072660768       -0.04138496535059
N           80.71932568798255        1.48513049883758       -0.08401809709571
N           83.62446241089887        1.49064915370960       -0.06464269537508
C           82.18223836444923       -4.89824422104408        0.22202724809833
C           81.60825196812725       -5.56108068695576        1.31015531680962
C           81.61187476145773       -6.94254186206625        1.36732660045955
C           82.18463829240214       -7.68803816282103        0.33497724172394
C           82.16155866168862       -9.16632446296718        0.43989820709869
O           82.74207886246558       -9.78762943462857       -0.59821729873078
O           81.67497340125598       -9.77602339053903        1.35819078250163
C           82.75690071906465       -7.03130238064852       -0.75500814992291
C           82.75692082239047       -5.64841888243673       -0.80715067764468
H           77.63472195978750       -2.62084861150792       -0.00345606107632
H           79.52254623665918       -4.52294483691098        0.07514715533974
H           84.84038459064651       -4.50111479492562        0.34920650800800
H           86.72249977092970       -2.59384843764212        0.25531621989291
H           86.71423065294350        2.66713992428469       -0.25222758144920
H           84.82664270886033        4.56775361414035       -0.35732418790764
H           83.17662770377386        5.21169867886778        1.63894456118059
H           83.17760557164361        7.68934794548787        1.50891532151940
H           81.66938208880781       10.71982760741298       -1.44128776337532
H           81.14806276084832        7.49281647090738       -2.25864242016871
H           81.15635553087616        5.02646382356663       -2.13624510389992
H           79.50800476578621        4.57271979026241       -0.08904789899478
H           77.62631079917216        2.66471818277302       -0.00879132483160
H           81.17349356233139       -4.98378995072780        2.11825458660253
H           81.17296674038938       -7.46303678404547        2.21148168612330
H           82.68609838567762      -10.74606042004979       -0.45329524253889
H           83.19903645592746       -7.60581910851290       -1.56038981772319
H           83.19092562351038       -5.13840780970339       -1.65984640918378
