246
 energy: -425.680561814249 gnorm: 0.000552659957 xtb: 6.5.1 (b24c23e)
Co          35.70015246540183       -0.00750631536909       -0.00365572875056
C           32.32712977129378       -0.03670096168925        0.01703275053613
C           32.99016435214695       -1.19966506096561       -0.31135847313660
C           32.33040486069119       -2.42534180075122       -0.64463296735802
C           33.28949706595306       -3.37863202052997       -0.70398633711945
C           34.53581021726992       -2.73310162856323       -0.41101090133435
N           34.34632922180610       -1.38827016918439       -0.21852029749261
C           35.72478074902296       -3.41073724493186       -0.17686937209956
C           36.90163597776734       -2.74572966016272        0.12854538497547
C           38.15313184905943       -3.40006374797477        0.36677162016710
C           39.09900479797372       -2.43166440643388        0.41218722239333
N           37.07785812285212       -1.38096131142074        0.07244643648919
C           38.42494123217424       -1.19073284465659        0.19529197221044
C           39.09267053013161        0.01884536851704       -0.01631234878090
C           38.40265452581736        1.21736133386501       -0.21880391242609
C           39.04803320771111        2.46465169620279       -0.48009582747483
C           38.08620695981167        3.41757202360362       -0.42736515518199
C           36.85762482786154        2.74797401902527       -0.12293493966526
C           35.67081237108955        3.39752922301203        0.18058182526670
C           35.65989954629377        4.87643492073444        0.26060319373918
C           34.82995768041803        5.62553410591462       -0.57473451899659
C           34.82520662544420        7.01014258546493       -0.49892107926480
C           35.64278778332992        7.66245411456134        0.41399817578942
C           36.46908531579536        6.92410469316599        1.25033321215789
C           36.48127959837731        5.53968791322650        1.17353978026214
C           34.49279324673329        2.69849287189753        0.41016098268036
C           33.24795697518296        3.31248833293097        0.76888352240757
C           32.30348142867348        2.34389910402810        0.71383010124804
C           32.97447141231237        1.13769010870411        0.33568720988484
N           34.32446078841753        1.35191362959419        0.21239394740736
N           37.05625208609766        1.38708488763031       -0.06196415884748
C           35.73467327579775       -4.89244716963365       -0.25387442056099
C           35.53047312734592       -5.53523133045408       -1.47477428874867
C           35.54423943807219       -6.92022769161434       -1.54686285799688
C           35.75672157743373       -7.67672659303967       -0.40244578212004
C           35.95763734049071       -7.04298727738714        0.81620353201037
C           35.94928258853749       -5.65809890853260        0.89199639571369
H           31.24360128259862       -0.04751944960996        0.02936279256836
H           31.26663450400109       -2.52618113599138       -0.79042650098888
H           33.17493129601253       -4.43162543492462       -0.90401300643215
H           38.28269173643341       -4.46570881953853        0.46260413593746
H           40.16238804068108       -2.53290725419247        0.55807867612277
H           40.10302177509659        2.57997089826102       -0.66992397920634
H           38.18800982340351        4.47992591739727       -0.57813723600954
H           34.20046976360529        5.11836727282955       -1.29743901713817
H           34.18073660110743        7.58260621348260       -1.15681238184377
H           35.63615843582537        8.74489884507668        0.47350276024525
H           37.10731209873614        7.42870690075549        1.96719852827056
H           37.11804331190088        4.96373935723571        1.83580562995252
H           33.12640680543280        4.35266068270087        1.02436926230874
H           31.24440487127877        2.42041787977329        0.90231324217822
H           35.37550994138653       -4.94471327039956       -2.37086167247063
H           35.38945709600834       -7.41068566716131       -2.50151181667748
H           35.76573908317051       -8.75924612752152       -0.46026516199189
H           36.12117162558146       -7.62977859719002        1.71330621839028
H           36.09551521422716       -5.16398241668033        1.84601255576682
Co          91.24975408237924        0.04810073904789        0.00924623300688
C           94.62298613462872        0.06846766517250        0.03158458112648
C           93.96317346842362        1.24620466789650       -0.24692362924658
C           94.62587469238437        2.48311324405824       -0.52878188225874
C           93.66863419065815        3.43984481571489       -0.55151700749265
C           92.42068168616976        2.78549164751349       -0.28632791052374
N           92.60729165520104        1.43358958471304       -0.14832621151760
C           91.23336330329957        3.45568314469388       -0.02414561416008
C           90.05589893246393        2.78154171434870        0.25815170236993
C           88.80724812438481        3.42859563511315        0.52892722594060
C           87.85939531626303        2.46118330352897        0.54151335726241
N           89.87608689296292        1.42053790774035        0.14820964387590
C           88.52915799737710        1.22849056398448        0.27092977199760
C           87.85693707476911        0.03066278862566        0.01210225865732
C           88.54258670635241       -1.15920975170619       -0.24814318182089
C           87.89254632376866       -2.39136558884538       -0.56394994974356
C           88.85239128079664       -3.34774494110782       -0.56269859741892
C           90.08433747317630       -2.69605774635485       -0.23391052282822
C           91.27079477747215       -3.36186773141713        0.03350571315215
C           91.27894702052829       -4.84294306460655        0.04266007955843
C           92.10485856466622       -5.55260689164090       -0.83025750591177
C           92.10716481321357       -6.93925990814019       -0.82093390414431
C           91.29119229297507       -7.63313371420249        0.06229737874467
C           90.46910047052688       -6.93426173511816        0.93585768758212
C           90.45936012934644       -5.54773442486431        0.92558104533400
C           92.45087288609658       -2.67714172342266        0.29373644486203
C           93.69435312960941       -3.31036468227888        0.62245990575784
C           94.64073014605441       -2.34211917965347        0.61522131210933
C           93.97245028154650       -1.11773663493378        0.29505182649785
N           92.62206672656603       -1.32301068010708        0.16078853589440
N           89.88940541403734       -1.33908627559960       -0.10755658889379
C           91.22667030782870        4.93926736097757       -0.04301830779201
C           91.43137338288000        5.62847585556805       -1.23826271225255
C           91.42062770392238        7.01524033523513       -1.25663747416216
C           91.21068530091816        7.72727318967121       -0.08358012955638
C           91.00945860382629        7.04720975111513        1.10978321225693
C           91.01488108078857        5.66039955337420        1.13188310830325
H           95.70651714302896        0.07601433479273        0.04596776995123
H           95.69006454748671        2.58774984876244       -0.66874162643913
H           93.78557534580605        4.49981248010694       -0.70877177681386
H           88.68068955145422        4.48984004302706        0.66782286898258
H           86.79711441356018        2.55889125897494        0.69744461424592
H           86.83616316782077       -2.49523133516265       -0.75266308406451
H           88.74709298554465       -4.40149596588502       -0.76323176132058
H           92.73314148758780       -5.01246524404209       -1.52974359647209
H           92.74847747933892       -7.48068248505107       -1.50755611070219
H           91.29588129855145       -8.71719566179803        0.06978546283246
H           89.83227250422544       -7.47150926784231        1.62987668788360
H           89.82600505869044       -5.00309346484981        1.61695660376966
H           93.81365266730162       -4.36196922026606        0.82715129881535
H           95.69955657430197       -2.42972498179389        0.80024242971628
H           91.58437955975204        5.07274800368772       -2.15665713960094
H           91.57578790168196        7.54198104683975       -2.19169639715707
H           91.20394858416148        8.81123790106872       -0.09942010709721
H           90.84797285781302        7.59914178098323        2.02910274214159
H           90.86862455188827        5.13006568623999        2.06624998845804
C           40.49397609019615        0.02956626294586       -0.02930993665724
C           41.71927144085611        0.04556337230952       -0.03729437959002
C           43.05992732324066        0.05240872778556       -0.04588476162023
C           44.29179869663692        0.06050667469530       -0.05187626757795
C           45.62753614972063        0.06272909352545       -0.05521372280223
C           46.85959305930430        0.06471049647298       -0.05596583006106
C           48.19989869065869        0.06311009241831       -0.05203336149169
C           49.42569310399571        0.05996888236364       -0.04389770025620
C           59.00938502427780        0.04718884651992       -0.06697428633864
C           60.23518244277967        0.04939564997182       -0.08405415658179
C           61.57525430087633        0.04851361204943       -0.09453156043156
C           62.80744588582357        0.04745704391681       -0.09938730635592
C           64.14284741174659        0.04413403452449       -0.09798659506650
C           65.37501075142468        0.04217223525975       -0.09066785239108
C           66.71505705371320        0.03855388763995       -0.07681952447823
C           67.94080647264688        0.03446876167164       -0.05763446409269
C           77.52343362401447        0.01082152866337       -0.00025722195512
C           78.74926720870496        0.01072855140734       -0.00379693295725
C           80.08960193837638        0.00972074552540       -0.00409758455433
C           81.32164272945620        0.01062556644422       -0.00151741657788
C           82.65741878033501        0.01128386911007        0.00091513281936
C           83.88932991841510        0.01525343975379        0.00263531741390
C           85.23007054924730        0.01904396117879        0.00532030057796
C           86.45551993250734        0.02405051818398        0.00682595878536
Co          54.21775540269741        0.05238109448963       -0.01125960547600
C           50.82557958277144        0.05806482403881       -0.02795881392337
C           51.50280759432465       -1.12664946028179        0.28104140782248
C           50.84903897375823       -2.34476004231096        0.63871208308344
C           51.80524039105369       -3.30574863621232        0.66226803156257
C           53.03639248358615       -2.67079625297480        0.30163438632179
N           52.84780155990928       -1.31737966817793        0.14196449414257
C           54.21168512431959       -3.34840656977704        0.00683730714066
C           55.38661730928578       -2.67692295313571       -0.30364813365865
C           56.60758263269950       -3.31721099454482       -0.68837467992626
C           57.56412006945317       -2.35638460972860       -0.70476043515951
N           55.58148264969571       -1.32349545168296       -0.15691785167429
C           56.92180513921931       -1.13466272646052       -0.33829335352362
C           57.60969887837503        0.04732480956994       -0.04390970552393
C           56.93415589779477        1.22707524116155        0.28702149562470
C           57.59021474199874        2.43782457919100        0.66550480457797
C           56.63357930210060        3.39700939703664        0.71848191305461
C           55.39984941791730        2.76905086896624        0.35382817062406
C           54.22219061922692        3.45190601743306        0.08389251749143
C           54.21941491645070        4.93157465957207        0.13065356617384
C           53.35966374575754        5.60847512653544        0.99711349592681
C           53.36055961355087        6.99424123600863        1.04385569310056
C           54.21238134669435        7.72007263937795        0.22234610733957
C           55.06685739782443        7.05406417841459       -0.64574790396708
C           55.07438144061179        5.66823134830081       -0.69055689512527
C           53.04641530789711        2.78674573422149       -0.23820738926275
C           51.82433887550318        3.43502129691857       -0.60491071144549
C           50.86884731336038        2.47366079193504       -0.64395753952849
C           51.51261498569684        1.24433105425185       -0.30692543604203
N           52.85337789604794        1.43032713507635       -0.12364310897309
N           55.58829892346475        1.41944352137289        0.16237718848283
C           54.21155214258944       -4.82876031434425        0.01132633519616
C           53.34810057076774       -5.53895513321759       -0.82428210103891
C           53.35600463302549       -6.92549012648114       -0.82432069770814
C           54.21950159043296       -7.61893070483257        0.01276623290825
C           55.07879445402637       -6.91968055678940        0.84941066805329
C           55.07900117790546       -5.53311857256220        0.84771510210844
H           49.79324435744073       -2.43812296091674        0.83594800815129
H           51.69606986902117       -4.35223157143196        0.89587862280843
H           56.70967312621394       -4.36630620871159       -0.91343949786371
H           58.61366884573211       -2.45256398083164       -0.93171718745264
H           58.64745248225534        2.52770208067426        0.85652135365221
H           56.74397926043454        4.43816051238030        0.97428449141142
H           52.70266812577719        5.04252056688124        1.64805885155435
H           52.69337131505880        7.50978233508678        1.72562612024795
H           54.21002639390309        8.80354657107222        0.25830494920427
H           55.73094809242117        7.61656369839637       -1.29251580903987
H           55.73260705026761        5.14984414335188       -1.37880749069028
H           51.72104562073508        4.48936456067478       -0.80342131706755
H           49.81884698296358        2.57426783467402       -0.86683220989032
H           52.68330943302022       -4.99891095125555       -1.48911263806424
H           52.68563343501003       -7.46702964752640       -1.48239038703077
H           54.22298896988296       -8.70299425385518        0.01284987658219
H           55.75288399899081       -7.45671342283594        1.50735287272021
H           55.74212258727099       -4.98843126150193        1.51050598640912
Co          72.73181291277764        0.02098723701470        0.00195798705178
C           69.34044039516772        0.03068695591069       -0.03385664377981
C           70.01469200751806       -1.16195821297001        0.25015861805097
C           69.35798468539268       -2.38678405443341        0.57883926293495
C           70.31358203115423       -3.34848517275192        0.58935977195563
C           71.54744717186901       -2.70722010667497        0.24906927875806
N           71.36026359189185       -1.35046815061750        0.11610926480650
C           72.72400270633851       -3.37873867736998       -0.05315338546457
C           73.90071853211917       -2.70058616822421       -0.34384561899959
C           75.12336440554790       -3.33175588424406       -0.73761839607024
C           76.08054994239838       -2.37126093833446       -0.72465837449583
N           74.09521266455380       -1.35157421389329       -0.16305854827631
C           75.43708762122397       -1.15890949242153       -0.33068851937119
C           76.12348350036690        0.01209353106906        0.00818034989253
C           75.44488201470534        1.18270765534932        0.36452344517800
C           76.09666957691942        2.38435118391096        0.77734758657210
C           75.14164324965411        3.34543228675479        0.82948775623733
C           73.91313073898665        2.72740373881792        0.43243100675521
C           72.74106972628506        3.41769942161146        0.15440093754568
C           72.74387423005120        4.89678521899683        0.21439611241451
C           71.87224385877740        5.57155452325511        1.07063751019329
C           71.87630979879135        6.95705292497955        1.12490767773439
C           72.74368480227263        7.68485827592084        0.32158171799355
C           73.61131022996923        7.02101591060582       -0.53508137406419
C           73.61542171963933        5.63546319899009       -0.58747984313469
C           71.56712118792659        2.76010744953557       -0.18779311910594
C           70.34809389202059        3.41560616470740       -0.55250384733481
C           69.39027650449493        2.45735096373335       -0.60602844482355
C           70.03007577031542        1.22214180651921       -0.28300093735421
N           71.37007466665374        1.40242413156745       -0.09152551583888
N           74.10138112632437        1.38109451587576        0.22133372894578
C           72.72464824374133       -4.85882164933374       -0.07360540122227
C           71.86096909130244       -5.55649723746367       -0.91952305546920
C           71.86559205048432       -6.94294390292726       -0.93684569465855
C           72.72630195043655       -7.64888246980902       -0.10728961430794
C           73.58711505127290       -6.96218451367591        0.73817328510928
C           73.59042352313487       -5.57574129400439        0.75394200505801
H           68.30099426066607       -2.48349042147968        0.76785796194785
H           70.20225960864073       -4.39924403465612        0.80177043638925
H           75.22605648021876       -4.37497686130734       -0.98827753597561
H           77.13139329186610       -2.46253395277481       -0.94760717986697
H           77.15058420220106        2.46797452717600        0.98846105853183
H           75.24995139434257        4.38171368837866        1.10522367641986
H           71.20308483795468        5.00415461838709        1.70778931367618
H           71.19912133720207        7.47083517435674        1.79808770147952
H           72.74326351053006        8.76814426452216        0.36284302467720
H           74.28799307004192        7.58502770953091       -1.16733263543968
H           74.28376482351436        5.11888669381448       -1.26729521689651
H           70.24792963559307        4.47235072911834       -0.73942249434987
H           68.34144178402809        2.56326029309408       -0.83196681023066
H           71.19806572189199       -5.00668113551127       -1.57824058385680
H           71.19428176369271       -7.47458453914431       -1.60198679275939
H           72.72645964956479       -8.73288127062755       -0.11990808531433
H           74.25928943789935       -7.50899826209609        1.39000322024720
H           74.25394610843409       -5.04098397561510        1.42434319839394
