250
 energy: -428.672201035632 gnorm: 0.000980204969 xtb: 6.5.1 (b24c23e)
Fe          47.54715858304517        0.03246907959347        0.04110770623918
C           44.16728938854388        0.10047631199466        0.12155165300600
C           44.81692005369119        1.09047186928138       -0.58806815594530
C           44.14755415171024        2.11442896562099       -1.33098981135700
C           45.10642714323266        2.96442036722973       -1.77095252990701
C           46.35904788373116        2.46845163400914       -1.27854290733727
N           46.17245317298455        1.29198418347808       -0.60556187576554
C           47.57194232772605        3.14398439256992       -1.39688334026101
C           47.58215838374758        4.48536950934438       -2.01851764610932
C           48.38280690113444        4.74764255674314       -3.13386106533950
C           48.39139051375801        5.99876568229103       -3.72340735993296
C           47.60674482340071        7.02809132233539       -3.19611309619301
N           47.58259655993972        8.26928446984614       -3.80613740099981
C           46.80197433715373        6.77431814672948       -2.08203065337683
C           46.79106966775871        5.51719986390929       -1.50537063343634
C           48.77121415280229        2.60618423909871       -0.94568082000896
C           50.02607457831150        3.29690198521388       -0.97294487595948
C           50.97126594007491        2.40874692835897       -0.57789986238634
N           48.94662125298715        1.32502668900300       -0.47977880670580
C           50.29030076102779        1.18368783926835       -0.30039287351526
C           50.94847843153715       -0.01467933083835        0.00739936223737
C           50.26413275579637       -1.19828032660652        0.31573214389473
C           50.91650557005376       -2.44556173200816        0.56104705534808
C           49.95327465437613       -3.31735996880892        0.94865527448112
C           48.71724309319571       -2.59283747460370        0.95545566035403
N           48.92013381953635       -1.30749915479754        0.51180019699429
C           47.51366887332944       -3.10286581172819        1.42578262094170
C           47.49375439900810       -4.46043594949420        2.01135182374972
C           48.31074654579830       -4.78190724227881        3.09881736744165
C           48.29192107708116       -6.05023680959740        3.65032394063063
C           47.46238908330869       -7.03733045998083        3.11123579011289
N           47.41352239739839       -8.29607420061165        3.68269859987950
C           46.63896019443447       -6.72328375041156        2.02650275704128
C           46.65539068303207       -5.44918212518797        1.48861933883643
C           46.32298872581471       -2.38120328295182        1.36849283283348
C           45.07569146244413       -2.83769051945047        1.90990225896471
C           44.13472236175512       -1.93455053442964        1.54338073843132
C           44.80976124736328       -0.92264133383849        0.78893278197431
N           46.15461989945256       -1.18233628804415        0.73206301677540
H           43.08361051939579        0.12406932910432        0.15047665235825
H           43.08137191651220        2.15997895017930       -1.48749406439756
H           44.98699387822980        3.84686232931880       -2.37847032368816
H           48.98609020900528        3.95140330195588       -3.55600609081750
H           49.00704752733765        6.18582715228718       -4.59646892548713
H           48.39147545817976        8.48737947445216       -4.36555708266753
H           47.27309857280150        9.02833129617585       -3.22061878685492
H           46.18951171900024        7.56862186955187       -1.66939141913075
H           46.17937019515578        5.33488086514765       -0.62857667003631
H           50.15786241195428        4.33006155551198       -1.25064720992592
H           52.03490486847292        2.55602528494003       -0.48011316841557
H           51.97451143520237       -2.61841301723165        0.44559599021084
H           50.06139966587816       -4.35930323943344        1.20265622212894
H           48.94931959677135       -4.01874801467110        3.53004727412581
H           48.92118673341776       -6.28359902278066        4.50227469400246
H           48.22834028964960       -8.55666981584237        4.21460568288906
H           47.06688015391155       -9.02603458252667        3.08119362684464
H           45.99062194929896       -7.48427118948912        1.60597661391482
H           46.02776481700908       -5.21920514864436        0.63457275224470
H           44.94845150564250       -3.73141752105135        2.49908996272831
H           43.07684768304648       -1.93845564050825        1.75362142403288
Fe          87.81601994805548       -0.02521028092063        0.06017019232125
C           91.20085610715419        0.00246140103193        0.15609449290168
C           90.55220422024215       -1.13018920376364        0.60423186982233
C           91.22762140623252       -2.30428162133947        1.06665087229924
C           90.27053726261749       -3.14890841845082        1.51959324395876
C           89.01265148808325       -2.48090532477235        1.34910141376196
N           89.19574218824029       -1.26749581691926        0.74394578545687
C           87.79528493422592       -2.98201562498275        1.80363252030175
C           87.78979248829445       -4.25182755420183        2.56279557677193
C           87.04741839194317       -5.34829104086227        2.11624279438302
C           87.04374622788832       -6.53776463271252        2.82246927619228
C           87.77355629027200       -6.65151098758772        4.00881029834844
N           87.80275211704186       -7.85088021196650        4.69792336493771
C           88.52085238635865       -5.56064312806267        4.46108111948047
C           88.52814709709070       -4.37869927415679        3.74264834194793
C           86.58890149933843       -2.33010009673850        1.58198550725405
C           85.32864519781802       -2.77905231036707        2.09463728133459
C           84.38261762438393       -1.94958087233920        1.59067777871477
N           86.41404345431249       -1.20494685899758        0.81166715670565
C           85.06804908559964       -0.99130722358791        0.78202299491447
C           84.40958830917727       -0.02189081271548        0.01463812553440
C           85.08979943895807        0.93600708283919       -0.74830925289937
C           84.42782488608874        1.87974007918459       -1.59275703815817
C           85.39014411018736        2.68885539523487       -2.09884927552620
C           86.63568634319849        2.24729084943703       -1.54527149084074
N           86.43715190031617        1.14075615655501       -0.75342260648589
C           87.84731576777151        2.89748329116545       -1.73926888531865
C           87.86956387577422        4.14685480394355       -2.53138384573639
C           87.10917879554619        5.25376399652330       -2.14531682793153
C           87.13411413757072        6.42375523177826       -2.88304284254372
C           87.91210376735694        6.50656491919116       -4.04094268721240
N           87.96925202932846        7.68687916894598       -4.76041997388616
C           88.67852239895335        5.40530794179165       -4.43202300378814
C           88.65701522809042        4.24339329876828       -3.68199234091983
C           89.04621068249681        2.42097105671296       -1.21411177344384
C           90.30072019493657        3.10722579201889       -1.32643915301794
C           91.24180473620753        2.29455259433287       -0.78938867928986
C           90.55996639079423        1.11822124482947       -0.34204553635516
N           89.21242878693280        1.22605399910816       -0.56946790498167
H           92.28458927135368        0.01331213341509        0.19069795668325
H           92.29629267475821       -2.44720118278166        1.03784304450202
H           90.39387536016571       -4.13876695710517        1.92822515260776
H           86.48618694801480       -5.27127433129462        1.19144235651975
H           86.47392024986661       -7.38590338000768        2.45881559344129
H           87.02036246987062       -8.46180600410082        4.52609605209457
H           88.05948263227111       -7.77934500365668        5.66946606302933
H           89.09132760790580       -5.64368568797317        5.37975891803747
H           89.09520910947001       -3.53065314544953        4.11070207334903
H           85.19430958037678       -3.61560201191322        2.76093817781342
H           83.31571859355270       -1.97220400612889        1.74473981331274
H           83.36460987849250        1.90483262031198       -1.77020064339754
H           85.27569606151268        3.50849883313390       -2.78939987323124
H           86.51100197283482        5.20133521937934       -1.24221996292137
H           86.54970860408686        7.28060371754716       -2.56594435654731
H           87.18060967932026        8.30145504656025       -4.63730163004871
H           88.26601118807486        7.58966152035221       -5.71821365440057
H           89.28693107593665        5.46477705416024       -5.32789103308219
H           89.24069361315063        3.38709679301324       -4.00180435593719
H           90.43182562748851        4.08774835947451       -1.75471024831850
H           92.30379102439235        2.45899176326095       -0.69747197038030
C           53.57227751465195       -0.04978774984439       -0.00123190758546
C           52.34792054879961       -0.03240258916048        0.00095620741160
C           54.91773554639416       -0.05914116799277       -0.00685697233786
C           56.14234481134954       -0.06686295665780       -0.00473403802072
C           67.00521055171583       -0.06449294512854       -0.08407316535557
C           65.77994754522101       -0.06369726670929       -0.07252046185713
C           68.34939348639180       -0.06278777641651       -0.08489400316510
C           69.57467008519882       -0.05807452782140       -0.07582847375196
C           80.43856057553070       -0.00264265560867       -0.00764785873195
C           79.21422912747732        0.00379428028244       -0.00620425083684
C           81.78479533269288       -0.00206023607731       -0.00074975807372
C           83.00894086424026       -0.01400737385906        0.00353862880823
Fe          60.96245729135077       -0.05304089635641        0.00730739557918
C           57.54188404371531       -0.06608053493344       -0.00492438045904
C           58.20704986071441        1.09991938484198       -0.40678610931818
C           57.51787076123579        2.28943490731400       -0.79380154547210
C           58.46859077179172        3.22203909716246       -1.04502664165033
C           59.73446400147734        2.59037131477192       -0.82499327481343
N           59.55690545206225        1.28634330926642       -0.43186144074524
C           60.95381350567102        3.24905947695704       -0.94075643047437
C           60.94922718064480        4.67364345778961       -1.34551870717298
C           60.44966667617759        5.05703243171161       -2.59267726971142
C           60.44829730516832        6.38575291521470       -2.97731994646843
C           60.93316903683623        7.36773596798527       -2.10907548473974
N           60.96794353476629        8.69247908665157       -2.50495718104765
C           61.43722538961449        6.99136758957274       -0.86108668066100
C           61.44653709277299        5.65897709162303       -0.48913288673881
C           62.17649462959169        2.63272086793315       -0.70417516057026
C           63.43957401848836        3.28538507404478       -0.87569944535462
C           64.39546574029904        2.35701491780782       -0.62936251132575
N           62.36169560463686        1.31541084307042       -0.35883088522382
C           63.71198792279233        1.14218962526961       -0.31714976492304
C           64.38206861520214       -0.05921718076665       -0.04698163360121
C           63.71534392642196       -1.25358018049113        0.25984379522623
C           64.40046536234121       -2.48025342505791        0.51678032112500
C           63.44986757367001       -3.39642574254010        0.82306037316113
C           62.18946339674752       -2.71983996361594        0.75941674286201
N           62.36812838747039       -1.40936918655562        0.38700506343124
C           60.97219791838162       -3.33112882881544        1.03579461334304
C           60.98043701482724       -4.73828106863342        1.49409092767860
C           60.33312149891514       -5.73411292771368        0.75798906722499
C           60.34626011018815       -7.05059877802484        1.18212576778778
C           60.99550578461150       -7.39874665780355        2.36987664468648
N           61.04242233281778       -8.71915771659517        2.77756961405599
C           61.64771939881405       -6.40881992556378        3.11026064499100
C           61.64120134590061       -5.09700250357591        2.67209850848134
C           59.74885527682654       -2.68443869186908        0.89565418890410
C           58.48931212483576       -3.29191936645247        1.20243683368867
C           57.53215008854898       -2.38347054805080        0.89251730103043
C           58.21278393681951       -1.22134882989363        0.41763409496287
N           59.56337718629378       -1.40224312150689        0.43931187577567
H           56.44577460864626        2.38892438211373       -0.84806758841651
H           58.33073887734647        4.24985305757431       -1.33817245851769
H           60.08004324858952        4.29954432000588       -3.27506298897263
H           60.06999827377815        6.67022595422839       -3.95312547581045
H           60.31814298421056        8.93866663756093       -3.23436601584105
H           61.01397142348809        9.36286972931266       -1.75449371355820
H           61.81775393459530        7.74868212084645       -0.18446438991231
H           61.82351928905148        5.37614157577635        0.48756911606043
H           63.57088838175017        4.31506411641811       -1.16522079553349
H           65.46726947532737        2.46831335153028       -0.66276847213358
H           65.46921184080500       -2.61073187122477        0.46180368110962
H           63.58198814143836       -4.43989695369540        1.05774583740225
H           59.83582211373069       -5.47363778435066       -0.16985464353278
H           59.85230487709578       -7.81720003199781        0.59520161999889
H           61.22782148442163       -8.85939946548536        3.75776199084626
H           60.31248627882027       -9.30798958178645        2.40996248316877
H           62.15593409422335       -6.67341162752066        4.03105714314591
H           62.13504861742352       -4.33146205042643        3.26044805702111
H           58.36069991061404       -4.28083006563820        1.61100768065020
H           56.46167027089410       -2.47523063281692        0.98179715253146
Fe          74.39322115022608       -0.01158008102513        0.00631694376036
C           70.97270417322767       -0.04695344332618       -0.05919426171245
C           71.63446602004350        1.15202283720944       -0.35884314773215
C           70.94213271814202        2.36873280254071       -0.64347463250682
C           71.89120349847668        3.30660682328355       -0.88010406455577
C           73.15840484017919        2.65103013176966       -0.75686694245005
N           72.98332072463273        1.33146857889151       -0.41421806235940
C           74.37742126715152        3.28459406111582       -0.96348354349794
C           74.37506295465759        4.71031191750040       -1.36221296602467
C           73.77032884627468        5.11913323249417       -2.55356834581473
C           73.77232922801298        6.45060881796342       -2.92860460914589
C           74.37660058491700        7.40907587564114       -2.11019165964020
N           74.33599790908040        8.74729087266890       -2.45609645189197
C           74.97122996465485        7.00950558179323       -0.91006072489848
C           74.97737581182091        5.67424429156025       -0.54940296072114
C           75.60232969161953        2.64132365856534       -0.81954775260203
C           76.86038772059067        3.26137777538616       -1.10693138113156
C           77.81863145975811        2.33900340430168       -0.84570123087820
N           75.78955855286327        1.34415691127192       -0.41041132077038
C           77.14059954321314        1.16107079753048       -0.40696215328801
C           77.81382242560889        0.00310404322669        0.00269751959017
C           77.15122319513596       -1.15495146606719        0.43020052206397
C           77.84270633252927       -2.33717093374729        0.83499610912167
C           76.89316647754259       -3.25863534424167        1.12821234870896
C           75.62581647856103       -2.62889946542874        0.91046130639565
N           75.80101369255935       -1.33692191056696        0.47887390105501
C           74.40680213219265       -3.28251226870591        1.05896577673300
C           74.41566323543167       -4.69132696518386        1.51441388753167
C           73.90435211914036       -5.70609787486532        0.70118868466461
C           73.92009801466313       -7.02470794121642        1.11873355617881
C           74.44659758708336       -7.35810390865271        2.36976796959193
N           74.42049643430416       -8.66865927355972        2.81043377575512
C           74.94637578624983       -6.34674879677902        3.19497278884897
C           74.93732282635747       -5.03199550675399        2.76507943810036
C           73.18359893878048       -2.67989214093450        0.79152153403038
C           71.92149266372164       -3.33351781000440        0.96723209461785
C           70.96529854621853       -2.43098429804989        0.63984256650404
C           71.64695385224472       -1.22743064888938        0.28296809973301
N           72.99685329112654       -1.38301903852962        0.37606898359266
H           69.86973613833533        2.47929117721420       -0.64793137293764
H           71.75287696872103        4.35076560807643       -1.10801714369111
H           73.31479694042621        4.37883710455051       -3.20211072234678
H           73.30805528215708        6.75505037682277       -3.86028177469164
H           74.19911157410543        8.93323625558101       -3.43658967886127
H           75.04015792019460        9.32360933203470       -2.02389594913623
H           75.42867853170132        7.75077224311550       -0.26394133904005
H           75.43423644657193        5.37224221230579        0.38664055444580
H           76.98589772413666        4.26701480585205       -1.47373190692927
H           78.88851470875174        2.43333118911111       -0.93943894450652
H           78.91527214989456       -2.43955661581293        0.87334361627580
H           77.03272773472655       -4.27893390798699        1.44589204967050
H           73.51188494553739       -5.45767788149023       -0.27875031669803
H           73.52782140217504       -7.80474470074327        0.47542430660949
H           75.08396583772877       -8.89070932668019        3.53527377912593
H           74.35933833836887       -9.36396414419329        2.08396911487361
H           75.34287656223434       -6.59757156313661        4.17273137374423
H           75.31905339279226       -4.25175006311756        3.41439101672388
H           71.78989580683138       -4.34591281442516        1.31221243036174
H           69.89394931539779       -2.55111839971889        0.64903803024424
