236
 energy: -429.722908061438 gnorm: 0.000542342605 xtb: 6.5.1 (b24c23e)
Cu          52.27335498129816       -0.43538107940635       -0.30378323201126
C           48.85830241495704       -0.38790632834824       -0.29514317329068
C           49.49479220010498        0.28095435441605        0.73929208886507
C           48.82600197311375        0.98603217939655        1.79509118776042
C           49.79047628925193        1.49161627653999        2.60480624382257
C           51.05285528964368        1.09593512526415        2.04938356892878
N           50.84838192352035        0.36741289975810        0.91896122548867
C           52.30373211594896        1.40862068367849        2.60410916873487
C           52.31778822577245        2.18948101920067        3.78157469984154
C           52.32995744890464        2.87573782956914        4.78221358544320
C           52.34946171481844        3.68257093765818        5.94288349708512
C           53.55629561573387        4.04834917282279        6.55071751069776
C           53.52305154204521        4.84530500369519        7.68099456965613
N           52.39264480889080        5.28703360551343        8.22668907711763
C           51.24120288426020        4.94308641014625        7.65530482760807
C           51.16504432516042        4.15070922417576        6.52374372716026
C           53.54213637511258        1.01356176999695        2.07445469384934
C           54.81203325276426        1.32443216092782        2.65997309571729
C           55.76228116222418        0.79079781750963        1.84948442149438
N           53.72886311582831        0.29646848327339        0.92902098167065
C           55.07593643064914        0.15425754813510        0.76536023122213
C           55.70879859835958       -0.47844574978356       -0.31543820811497
C           55.05281749602938       -1.09724906665817       -1.39042909186657
C           55.71562705390471       -1.75286976323413       -2.47780816626838
C           54.74681052939092       -2.26407723636751       -3.28069858707121
C           53.48909256971169       -1.91932177049353       -2.68788580772720
N           53.70151662249984       -1.20570065926960       -1.54480690594878
C           52.23755319563815       -2.28019196630690       -3.21112949842496
C           52.22582594059430       -3.05885074836522       -4.39006355886513
C           52.21907755790802       -3.73926546653338       -5.39474624457473
C           52.21940385322264       -4.53879349889553       -6.56061638922562
C           53.41787854718086       -4.94545134700155       -7.15902371711404
C           53.36639939623512       -5.73256269371570       -8.29549794183633
N           52.22586781782748       -6.12738747667318       -8.85586697608862
C           51.08233682304583       -5.74454195626831       -8.29339002363654
C           51.02431220076233       -4.95805483077319       -7.15665271475437
C           50.99866048543017       -1.93293481762098       -2.65024693533246
C           49.72294355946251       -2.29258799706494       -3.19964254031814
C           48.77706523725698       -1.76006282586736       -2.38525094583910
C           49.47060804123191       -1.07449631473006       -1.33256913669169
N           50.82031916725509       -1.19926891858754       -1.51869900750369
H           47.77322938324970       -0.37242188583331       -0.29256859193877
H           47.75539822206547        1.07456033188813        1.89188452019779
H           49.67141585878253        2.07871797659778        3.50161475352695
H           54.49980258686890        3.71122145386486        6.13868939143806
H           54.44437049570654        5.14469908625865        8.17235911877815
H           50.33815511714052        5.32104854440546        8.12604020528699
H           50.20541251553141        3.89552789282200        6.09059462954207
H           54.94862043122444        1.88062909480744        3.57365069856902
H           56.83391490105436        0.82374435366446        1.96500200640388
H           56.78528806090109       -1.81356893127502       -2.60013031860724
H           54.86326634151980       -2.82579237840119       -4.19377917882244
H           54.36911204768644       -4.64711538224461       -6.73499170577623
H           54.28085395872662       -6.06304762631579       -8.77972009911385
H           50.17063553825201       -6.08446456825643       -8.77628326567732
H           50.07056850523070       -4.66990334140143       -6.73127005173750
H           49.58306764109010       -2.87580606460230       -4.09598260249409
H           47.70392056567707       -1.81805062986886       -2.47693402126004
Cu          85.03727517342033       -0.54345409801651       -0.36799561572174
C           88.45228444722412       -0.51880791771762       -0.35718467334030
C           87.83716050012735       -1.76087119193411       -0.39748832107458
C           88.52803244943873       -3.01806640368222       -0.43485841568579
C           87.58009123326985       -3.98885678227769       -0.45884915217153
C           86.30593333728264       -3.32987270351347       -0.43522957822618
N           86.48699202188644       -1.98203954006163       -0.40125784631936
C           85.06571395882480       -3.98684056373432       -0.44036841789980
C           85.07131118007096       -5.39917126151018       -0.48172180443625
C           85.06392016948027       -6.61190790381595       -0.52197227916623
C           85.04149776300824       -8.02461063712454       -0.57036742013627
C           83.83062519744611       -8.72677459762247       -0.59906837872411
C           83.85807780904362      -10.10899486292499       -0.64734680795184
N           84.98662318020405      -10.81377989576630       -0.66808802844009
C           86.14171273137030      -10.15379297294229       -0.64130820522276
C           86.22373696718930       -8.77350397530150       -0.59290301340571
C           83.81560147223229       -3.34928030453358       -0.41052838862645
C           82.55654978499375       -4.03219172187405       -0.41315445532316
C           81.58990668177579       -3.07846145508955       -0.39017934338622
N           83.60583968382389       -2.00131885858458       -0.38298989964844
C           82.25527048974197       -1.81048126254958       -0.37340257380614
C           81.60100141089424       -0.56836570755322       -0.37683742130471
C           82.23717160200823        0.68314034587836       -0.37804239321143
C           81.55360668620847        1.94145513587671       -0.36685060728022
C           82.50627708529316        2.90905095184613       -0.33992225843578
C           83.77501792772414        2.24435003298562       -0.33381695799521
N           83.58483784447338        0.89347915815546       -0.36121174471345
C           85.01555337261362        2.89995431389963       -0.29430244667027
C           85.00033135170052        4.31218606165692       -0.25094688222239
C           84.97019250186665        5.52435328314490       -0.20407071272403
C           84.92878744220251        6.93633085251818       -0.14713432190782
C           83.70949712539326        7.62432784909049       -0.14447827856463
C           83.71957395329856        9.00630889260874       -0.08305517567908
N           84.83884516366300        9.72372710614098       -0.02594264112420
C           86.00188615020116        9.07727357089885       -0.02883927242955
C           86.10121628545005        7.69857108364154       -0.08772489964613
C           86.26514257087283        2.26098523404843       -0.29021381280925
C           87.52949955479338        2.93814766343859       -0.25576873744935
C           88.49147705552258        1.98115067965997       -0.27504852272379
C           87.81906067558285        0.71423377534519       -0.32002455149853
N           86.46587533642241        0.91595661538099       -0.32554732820970
H           89.53744443622733       -0.51100622570697       -0.35372802689405
H           89.60092727977471       -3.12874246747642       -0.44105781387974
H           87.71732701889546       -5.05818287225125       -0.48824695570384
H           82.88849987536646       -8.19210271022857       -0.58394969922892
H           82.93360745655006      -10.67885251601824       -0.67065477638548
H           87.04304850336136      -10.75976006766833       -0.65919663944224
H           87.18626865830822       -8.27683563842340       -0.57253390020072
H           82.43718922903454       -5.10370069231443       -0.43231865923161
H           80.52011948179893       -3.21305521935393       -0.38995486744628
H           80.48203468887498        2.06076801410698       -0.37330165692350
H           82.37141649606599        3.97876575987751       -0.32338708233994
H           82.77430135873787        7.07926748712358       -0.18932044772518
H           82.78822769086851        9.56534124956981       -0.07891072746027
H           86.89531426020594        9.69325466099472        0.01875887824406
H           87.06965039817473        7.21308644145980       -0.08731832725395
H           87.65118155179633        4.00923933249297       -0.22238258730605
H           89.56260345989936        2.10716297001649       -0.26054199875158
C           57.12217708944691       -0.49294054900125       -0.32237209843066
C           58.33730959770415       -0.50301923281084       -0.32997748672267
C           68.04770192669980       -0.60432378983982       -0.37264409529618
C           69.26384235750643       -0.60830346757980       -0.37552103188466
C           78.97384287712404       -0.58966962117864       -0.38055904617350
C           80.18941956309179       -0.57887071054269       -0.37941865125243
Cu          63.19254427773608       -0.55457386788957       -0.35213414676453
C           59.75039747247028       -0.51682720787794       -0.33664779117237
C           60.39374266383973       -0.17420658825121       -1.53602623279273
C           59.71859854695722        0.20171257136500       -2.74216029710460
C           60.67853993027708        0.50668480562278       -3.65348065092418
C           61.94235048471013        0.31588275235733       -3.00665674194662
N           61.74270632438389       -0.10470437909055       -1.72489437483184
C           63.18886711197460        0.54550301530060       -3.60965065612510
C           63.18910966138252        1.00631616058702       -4.94557572534093
C           63.19309862465056        1.40751115480923       -6.09075132410864
C           63.19491748915495        1.87725016638656       -7.42413008985320
C           64.39223751374206        2.14462468743203       -8.09826116549898
C           64.33908603883516        2.60235572028371       -9.40273738417295
N           63.19815048247819        2.80378143114680      -10.05719072191865
C           62.05560048133010        2.55218939158987       -9.42318994440201
C           61.99927390744479        2.09224623995750       -8.11965283171733
C           64.43625095322955        0.35464290987851       -2.99526789395850
C           65.69830364701883        0.57995310647146       -3.63371441429635
C           66.66023509259890        0.26193634541225       -2.72904298324652
N           64.63971315419798       -0.08633845009511       -1.72040886021239
C           65.98887674258967       -0.15503700314517       -1.53476119181313
C           66.63666850052068       -0.59397704623113       -0.36791500451005
C           65.98993754969521       -1.02139178192652        0.80375870919132
C           66.66253578899386       -1.45736593483563        1.99055371483497
C           65.70198783125156       -1.75266724607585        2.90437612565722
C           64.43970995341186       -1.49400193928486        2.27914454005271
N           64.64139680502157       -1.05715487738464        1.00256466618541
C           63.19417454763904       -1.65178383598173        2.90635138070776
C           63.19383772547171       -2.11304673262540        4.24210009185221
C           63.19201474615555       -2.51621687544950        5.38657199210227
C           63.18539930751876       -2.99282477101083        6.71747690079499
C           61.98563529482720       -3.18372751486162        7.41301263512759
C           62.03200759642508       -3.65747636269571        8.71194885775355
N           63.16870518308900       -3.94401177837946        9.34163507378087
C           64.31351553065566       -3.76427138143054        8.68764378685922
C           64.37653165664381       -3.29555272988778        7.38749708841157
C           61.94787182492458       -1.39202340535438        2.31518926134619
C           60.68619265644303       -1.55164906545525        2.97448773227635
C           59.72493732157566       -1.22848283083189        2.07090479309163
C           60.39713914981448       -0.87144940996341        0.85741854724099
N           61.74588523319217       -0.97049580561705        1.03412876822237
H           58.64764787645492        0.23054197832129       -2.86502261630302
H           60.55202484180158        0.83423408172429       -4.67305134939791
H           65.34393271196618        1.99424786989421       -7.60297268633334
H           65.25258689478271        2.81748900559926       -9.94969849051018
H           61.14346505205972        2.72751873979252       -9.98636750646181
H           61.04651159899623        1.90021681486028       -7.64114005533425
H           65.82292928942881        0.93152366018047       -4.64545670883641
H           67.73043826046589        0.29729456178118       -2.85448648861309
H           67.73271385635782       -1.52138544039281        2.10449999919858
H           65.82765656971955       -2.10950847054820        3.91414790011296
H           61.03738401450133       -2.96341433674822        6.93770569513090
H           61.11645018085403       -3.81551814902751        9.27469468713123
H           65.22200322410714       -4.00760301527598        9.23111112917532
H           65.33105857930194       -3.16430779072292        6.89225037188962
H           60.56171052541515       -1.87229872244747        3.99649386293843
H           58.65482351093171       -1.23283796581996        2.20383433851405
Cu          74.11926622545536       -0.60509667033872       -0.38433476535626
C           70.67490851630791       -0.60799833964323       -0.37820191733519
C           71.31970918482855        0.37316500537481       -1.15004739203022
C           70.64495033334137        1.37777669879001       -1.91589306958511
C           71.60430726999395        2.14437127940008       -2.49638098137840
C           72.86794037659243        1.61199682352529       -2.08343584971144
N           72.66825484452060        0.53516433111703       -1.26986306966780
C           74.11361047925055        2.13793183431423       -2.45886152558143
C           74.11557765449727        3.26148710317182       -3.31602466018007
C           74.12209412728639        4.22561489529694       -4.05273023093221
C           74.14755254782446        5.35119519800562       -4.90774596330765
C           75.35896074867958        5.93756420577029       -5.29346391695991
C           75.33425339069862        7.03947109419873       -6.12942988691040
N           74.20790716978129        7.57649910568757       -6.59175611756552
C           73.05242682139928        7.02387810338461       -6.23123995048909
C           72.96772291924073        5.92131521347505       -5.39963183175013
C           75.36152663550743        1.63995722799906       -2.05302004496032
C           76.62324761693868        2.19065109281250       -2.44821259711404
C           77.58558406648230        1.43016229235808       -1.86478538626705
N           75.56500949784345        0.56504134086380       -1.23843346873250
C           76.91411130974754        0.41386324454807       -1.11149972935910
C           77.56253587519905       -0.59659858546462       -0.38314685370061
C           76.91922845742769       -1.61222823911386        0.34239530870762
C           77.59507653645048       -2.62732638803315        1.09332707287913
C           76.63597252989331       -3.39481784161502        1.67298004267543
C           75.37183031783661       -2.84897462731314        1.27864880545810
N           75.57069847359301       -1.77065374513788        0.46746650465464
C           74.12596009330788       -3.35331891974722        1.68293868552647
C           74.13148604759473       -4.48224347569836        2.53303005556539
C           74.14668288969054       -5.44899000861675        3.26626152038005
C           74.16679210114705       -6.57650740875826        4.11886299852641
C           72.98154220287920       -7.16391242331668        4.57652505017199
C           73.05791469414511       -8.26597594166891        5.40940599531394
N           74.21040446076152       -8.80254924930375        5.80242198664006
C           75.34166938105172       -8.24999541698041        5.37162667701894
C           75.37477582269007       -7.14725121305936        4.53692100688134
C           72.87803841415661       -2.82889999143961        1.31250696118458
C           71.61676709995373       -3.36456903786462        1.72860170174079
C           70.65394965853449       -2.59704626508910        1.15507161331557
C           71.32418449901974       -1.58931384855496        0.38943566411631
N           72.67351511446341       -1.74974336355977        0.50326504132349
H           69.57439021390516        1.48099981756167       -1.99031953998560
H           71.47726181648623        2.99774446845991       -3.14320681221209
H           76.29924536667578        5.53182156708462       -4.94002068939128
H           76.25911125407555        7.51469701854482       -6.44363671200680
H           72.15300932165644        7.48686843055261       -6.62698231202087
H           72.00495554658291        5.50335659777366       -5.13131516751643
H           76.74747504759962        3.04692932653602       -3.09172320753887
H           78.65594045779690        1.53756323369064       -1.93792751580802
H           78.66593355419643       -2.72969858978919        1.16680014212973
H           76.76384219458444       -4.25248024223098        2.31393846630534
H           72.02115412648998       -6.75912834495568        4.28090495633277
H           72.15418727346297       -8.74175221153381        5.77929384585640
H           76.26377842340528       -8.71263295544408        5.71164064530285
H           76.31908622588939       -6.72889898533360        4.20992507044792
H           71.49352755739618       -4.22011203317066        2.37331511468323
H           69.58378990629642       -2.70156868294660        1.23383309070763
