374
 energy: -587.753530086660 gnorm: 0.000709733106 xtb: 6.5.1 (b24c23e)
C           46.73099677322098        0.10166471415635       -0.07518315715652
C           47.34080441481844        1.29355838350311        0.29495482873681
C           46.69027749683993        2.50066840996464        0.67575547290039
C           47.65393332985042        3.42804858029391        0.95684310518313
C           48.92446138446016        2.82069151318321        0.74536179908944
N           48.68453861698650        1.53292123714503        0.35759183756025
C           50.18824075970836        3.39951483811960        0.90760245143963
C           51.40260091759365        2.73889746488996        0.71118254780273
C           52.70011879867071        3.38193010929005        0.81666137750326
C           53.62082824371394        2.42996955999039        0.55957727328004
N           51.55733341856327        1.42712318142829        0.37868301892915
C           52.88454986660167        1.20965347926045        0.29161430403717
C           53.52151997391967       -0.01448463701950        0.00094631891012
C           52.88426845431129       -1.23442515119655       -0.29598715541665
C           53.52582112740861       -2.47558406537263       -0.55023744957279
C           52.55744568125709       -3.40608580357059       -0.80756253811285
C           51.29367515458106       -2.75784877045306       -0.72854404898117
C           50.03207820511951       -3.32950241197124       -0.92100478619073
C           49.99764168010010       -4.76583012539352       -1.29088699184479
C           49.36376591877112       -5.68878814452040       -0.45993744827302
C           49.33391274874443       -7.03814064858655       -0.79529444801808
C           48.63685227976674       -8.02630990557735        0.10039264427879
C           49.93855479257279       -7.46116718116082       -1.97518954502804
C           50.57370266639315       -6.55225724607276       -2.81617019932249
C           51.20599730058151       -7.01663063724705       -4.10040963793709
C           50.60155940671581       -5.20601445563837       -2.46811021213237
C           48.81712394099460       -2.64851613492792       -0.79013950797075
C           47.51529486242072       -3.24161076909543       -1.05355053682282
C           46.60147538978713       -2.27905844081414       -0.81600453088882
C           47.34412440694591       -1.09665813946541       -0.41664903640182
N           48.67541301279201       -1.35308759592549       -0.42243731989044
N           51.54341584112512       -1.44938656924528       -0.40676600941607
C           50.22168885242750        4.82537221223136        1.31829175404093
C           50.81703751598543        5.19360555054803        2.52314534007162
C           50.84671456682587        6.52743310760907        2.91910344329351
C           51.50252574715444        6.91126667403707        4.21801342804466
C           50.27981509087198        7.49490810945823        2.09664547947457
C           49.68232922096077        7.14317745707379        0.88886775166336
C           49.09180172145737        8.20413296434422       -0.00016341473765
C           49.65453992710119        5.80728326835140        0.50583441635547
H           45.64585880181128        0.11707856722157       -0.09411872760518
H           45.62078616421146        2.62773498325384        0.73032624276797
H           47.50421470994950        4.44266929581816        1.28868187183951
H           49.40894360169646        0.85334369852585        0.15106979754212
H           52.86165501191309        4.42364065114115        1.04192906445550
H           54.69515716488428        2.52024820150157        0.54053007866399
H           54.59285225989610       -2.62833185258311       -0.53000644037344
H           52.70172095937161       -4.45186205028878       -1.02473924661196
H           48.90971444275296       -5.34948505293466        0.46463817332556
H           47.58463946546919       -8.10483057772906       -0.18271175675885
H           49.08653459281965       -9.01551383418297        0.01258536774007
H           48.68441178379459       -7.70726713729577        1.14177436110938
H           49.91759904279363       -8.51305701999887       -2.24108454561039
H           52.04677570956138       -6.37821648114075       -4.37255809843759
H           51.55712594714687       -8.04484569043813       -4.01093412518339
H           50.47352905559902       -6.97701402876803       -4.90994093845871
H           51.08166834384509       -4.48691618465087       -3.12290711044025
H           47.34957743436644       -4.25340745034550       -1.38711983518111
H           45.52725643434524       -2.33139132781166       -0.90101677637543
H           50.82337086488893       -0.74828767028080       -0.26673331671867
H           51.24338758783156        4.42893393186740        3.16318541951676
H           51.24620564868806        6.19975329119398        5.00381752961274
H           51.19495154343778        7.90881470441725        4.53140278406403
H           52.58853143495369        6.90774600204156        4.10141449087226
H           50.30037822328841        8.53673944447809        2.39959024938703
H           48.60615838946133        8.97932825147677        0.59342947657897
H           49.88081208001167        8.67524165807968       -0.59073591750865
H           48.36164805980834        7.77561604147486       -0.68675351361963
H           49.20484344517550        5.52315799902393       -0.43937463591438
C          127.85797627544925       -0.07300872673218       -0.06779663378150
C          127.24086164490315       -1.28491169099527       -0.35042497491461
C          127.88395859043166       -2.52387768723654       -0.62743883055911
C          126.91474445277730       -3.45912021647774       -0.85897661223681
C          125.64816344396696       -2.81916474718934       -0.74043324901834
N          125.89579000568386       -1.51352925047908       -0.42390828176470
C          124.38126432113114       -3.39340205905641       -0.89448832748169
C          123.17050695425658       -2.71823448192008       -0.72807981930061
C          121.86919210381348       -3.32188618082561       -0.95234008663338
C          120.95399815235433       -2.36516235945561       -0.69339693371132
N          123.02333686654337       -1.41534907758745       -0.35886931715146
C          121.69744211405018       -1.17700948401840       -0.32090254893952
C          121.06741936257447        0.03578828492826        0.02726367751830
C          121.71114370018468        1.24227916505143        0.36225218730834
C          121.07582923476468        2.45395590658501        0.74292804417183
C          122.04938149772411        3.38495348753085        0.97796138751108
C          123.31032905442112        2.77163716787915        0.73832910835301
C          124.57547706107273        3.35420824815166        0.86264745095309
C          124.61725185336516        4.78723848083717        1.24465926991190
C          125.23959067965595        5.17977487957383        2.42903417717014
C          125.27636544471056        6.52024848501118        2.79754874592240
C          125.96099174508791        6.93785593959029        4.07093058495263
C          124.69038913968873        7.47190839485360        1.96820309618430
C          124.06677328292447        7.09648182966299        0.78212247464170
C          123.45474432573025        8.13524294170173       -0.11850225649587
C          124.03170302349498        5.75240730750295        0.42626795042938
C          125.78728351273423        2.68692642779854        0.65506195577924
C          127.09381807436345        3.32141283504703        0.73447503208581
C          128.00242355020200        2.35940094359926        0.47575046000589
C          127.25197467710043        1.14090819462371        0.22835796033027
N          125.92144651570312        1.37781682314344        0.33602182415142
N          123.05356400667077        1.47480725243891        0.37740019800476
C          124.34103371387825       -4.82955860635333       -1.26712363269208
C          123.74302235376092       -5.75937932657448       -0.41896243101167
C          123.70579435602701       -7.10777557555499       -0.76142065702548
C          123.04604942629157       -8.09905771857308        0.15873042858534
C          124.26813226793607       -7.52106164671123       -1.96428201123784
C          124.86896723126966       -6.60401383595838       -2.82297869486130
C          125.45467607178551       -7.06322970531336       -4.13095029515362
C          124.90413788785773       -5.26046612916326       -2.46845124358348
H          128.94321089460098       -0.08547174994095       -0.08296894651697
H          128.95251190551770       -2.66877704606625       -0.63894671930969
H          127.05793184170714       -4.50342292444407       -1.08467254471438
H          125.17554919256213       -0.81734540117439       -0.26323367056341
H          121.70124341122947       -4.33583093495246       -1.27742209256363
H          119.87910228705286       -2.42925962513848       -0.74964972809039
H          120.00917269760065        2.58462039527025        0.82942281944809
H          121.91045563342371        4.40465790137295        1.29817210260368
H          125.67903541717287        4.42741817412915        3.07476755551937
H          127.01534879463809        7.14513094987158        3.87385754987826
H          125.50783385286411        7.84215948580626        4.47758065825922
H          125.90535721129883        6.14700578718901        4.81922798739004
H          124.71697502451886        8.51909791149083        2.25157295503675
H          122.61348876131100        7.72048530497881       -0.67423405114721
H          123.10922459223485        8.99396011050861        0.45744870036394
H          124.19764537242470        8.48578460909900       -0.83867414021908
H          123.56033324117070        5.44993871979161       -0.50254708857314
H          127.26617184754728        4.36426356042253        0.94711363623885
H          129.07784569332753        2.43761999964306        0.44026858643776
H          123.77016791165589        0.78963939909999        0.16145224203246
H          123.32035762063298       -5.42788419772270        0.52316138714231
H          123.29847327038090       -7.88701622290255        1.19829950852887
H          123.35384104710062       -9.11736759135992       -0.07843212278432
H          121.96045632916764       -8.03605895694514        0.05589326268042
H          124.24132446713128       -8.57102760733919       -2.23716393825564
H          125.93220303327523       -8.03726102840060       -4.01990169023069
H          124.66425926601920       -7.15760456176783       -4.87901785936566
H          126.19055688462359       -6.34917069689496       -4.50078033893468
H          125.35651466802982       -4.53493413213362       -3.13579643523551
C           54.92640501167507       -0.03280017396737        0.00712941144611
C           56.15118173420294       -0.04866808538828        0.00916474752938
C           57.49330869911712       -0.05991370219494        0.00897698129527
C           58.72422771750922       -0.06854546752851        0.00604607864614
C           60.06160156563647       -0.07298614381161        0.00323757272092
C           61.29265151657114       -0.07487260006335       -0.00285967576825
C           62.63455865965466       -0.07668041082426       -0.01110909990387
C           63.85956816210432       -0.07768315342473       -0.02693381007195
C           73.52895587059152       -0.05401993494373       -0.02645806691026
C           74.75425745450369       -0.04651800065415       -0.02478153177939
C           76.09555362961723       -0.04077529099314       -0.02658115626473
C           77.32691355574119       -0.03842158045652       -0.03115677081337
C           78.66355343178412       -0.03620062903542       -0.03666583101403
C           79.89488166431418       -0.03419293579363       -0.04460127899581
C           81.23613997789812       -0.03409854607931       -0.04932121117685
C           82.46142817354495       -0.03163072455724       -0.05627742150212
C           92.12861125225849       -0.01635293230770       -0.05476271721030
C           93.35389187100321       -0.01016868610484       -0.05293695221607
C           94.69516012786445       -0.00675407635335       -0.04884627049891
C           95.92648760460463       -0.00249939932179       -0.04359764349685
C           97.26310956478692        0.00241833936779       -0.04096383587650
C           98.49447076021093        0.00633329037007       -0.03844012699672
C           99.83576298171970        0.00850481926939       -0.03939251236416
C          101.06107315713281        0.01396707827577       -0.04378660950141
C          110.72956551866643        0.04849928506793        0.01429582359822
C          111.95443343528576        0.06024832849843        0.03044375315468
C          113.29624791495162        0.06774422834167        0.04402023356678
C          114.52726425046303        0.07507284369983        0.05087906660219
C          115.86463058144601        0.07686290947275        0.05755715456948
C          117.09569516951086        0.07422224993291        0.05880761948128
C          118.43786167459628        0.06883802509833        0.05199196537412
C          119.66261093467701        0.05541521944293        0.04155779943663
C           65.26354097436524       -0.07828978808554       -0.03538116925266
C           65.89215222851971       -1.25588696810594        0.41428261474653
C           65.24533424935332       -2.42533773806933        0.89065471222795
C           66.21175869279539       -3.33932029915179        1.21151249800526
C           67.47723152105604       -2.75511878015021        0.93349473950757
N           67.23318410750922       -1.49295836027442        0.46154858085886
C           68.73677137301841       -3.33657711240473        1.12184038316513
C           69.96149330551496       -2.71235713123329        0.88444227298874
C           71.24761131373420       -3.36560047551981        1.04941160149821
C           72.18556538283579       -2.44943472438596        0.73151736758151
N           70.13942390485323       -1.43150835948177        0.45599805376027
C           71.47061017558319       -1.24356888266889        0.36271184068680
C           72.12567600602611       -0.05954348538633       -0.03399705248159
C           71.49678678400737        1.13025792426880       -0.45049251948378
C           72.14346724164531        2.33158256379285       -0.83976882794601
C           71.17713125789888        3.23494822707439       -1.18949666175599
C           69.91184151589452        2.60752796094939       -1.02951516247949
C           68.65265445840883        3.17033186451987       -1.26880313492269
C           68.64181487009668        4.55504789683135       -1.80508190354829
C           68.06307470160009        5.59061219443498       -1.07219624022769
C           68.05046246709173        6.88759737485624       -1.57251912973185
C           67.44477336685581        8.00893588434476       -0.77244821425410
C           68.61941621584873        7.14466629081567       -2.81707155434855
C           69.19804400152351        6.12177115456535       -3.56133592980110
C           69.82304502117120        6.41061263143456       -4.89946331934379
C           69.21030381440342        4.82881728767565       -3.04786733314702
C           67.42767098132643        2.53941299029661       -1.04908291460333
C           66.14173728063570        3.14215548379721       -1.35088019128052
C           65.20372264366144        2.23822508593630       -0.99984491012082
C           65.91838072056740        1.08178836894492       -0.49683635742401
N           67.24987687119361        1.28678022806647       -0.54476263108030
N           70.15605732129811        1.33989481843218       -0.57205711321244
C           68.74854174791960       -4.73770913415959        1.61401377859794
C           68.19103741868331       -5.75596780028321        0.84295430049450
C           68.20549701957044       -7.07233461510569        1.29353066439400
C           67.59380962804285       -8.16266421799821        0.45586603851594
C           68.77453135345577       -7.36319309977778        2.52899064093179
C           69.33228391349671       -6.35633032363452        3.31233906899510
C           69.92607536099229       -6.68201724496545        4.65609476783871
C           69.31817846150936       -5.04558284995238        2.84892530253058
H           64.17718698739121       -2.54231963752552        0.97759576377752
H           66.06399929770640       -4.32823276777445        1.61374794207404
H           67.95275688963525       -0.83047783782163        0.19216586666782
H           71.39067040357352       -4.38922025130694        1.35544546511617
H           73.25854236662789       -2.55628752292015        0.72982573829094
H           73.21142304614789        2.47863373242701       -0.84464603011882
H           71.32484081895912        4.24986657858681       -1.52069147389258
H           67.63289226735510        5.37906390347574       -0.09947045294100
H           68.23233099876650        8.57389970188287       -0.26871479251787
H           66.90006676207408        8.69533701860664       -1.42160038939888
H           66.76272122456973        7.62341760230715       -0.01475391374165
H           68.60759876979479        8.15521256603955       -3.21240008795983
H           69.73743031439750        5.54884722748529       -5.56174925674557
H           70.88431838449367        6.63631865500781       -4.77206815082393
H           69.34779851148922        7.26951714738168       -5.37355067835464
H           69.64548270691473        4.02039249100996       -3.62530904634693
H           65.99870241136919        4.11916389251467       -1.78318549834209
H           64.13086732389311        2.31752679291697       -1.07309701678075
H           69.43668664735732        0.65892356401247       -0.35295140791004
H           67.76284268668435       -5.51924014387431       -0.12502625234114
H           68.00401751045129       -9.13646090504982        0.72328233745663
H           67.77383380812621       -7.98248056516979       -0.60438415215321
H           66.51346709594449       -8.19151335579548        0.61513173567577
H           68.78779810411504       -8.38799596844969        2.88564391715129
H           70.67137387820223       -5.93996831192150        4.94256427530326
H           70.39378835247960       -7.66685962344244        4.64444832618724
H           69.14175599531275       -6.68854076325470        5.41649368536610
H           69.74042907606986       -4.25078500992292        3.45392982933920
C           83.86472582159185       -0.03192706311024       -0.05861664026034
C           84.49179556098657       -1.20261598682368        0.41159888764787
C           83.84324296638918       -2.36186931051848        0.90986759566982
C           84.80857245871294       -3.26785725888188        1.25588565219779
C           86.07497583119887       -2.68998174377115        0.96928536210105
N           85.83244287555291       -1.43853445101161        0.46836142737100
C           87.33440621326531       -3.26712904893152        1.17048890271822
C           88.55893244698264       -2.65127393202297        0.91024532492846
C           89.84392397340278       -3.30673072224644        1.07477720889902
C           90.78237597507808       -2.40061016702353        0.73054687544769
N           88.73767462642485       -1.37907085957021        0.45740999474224
C           90.06883877560293       -1.19754178451695        0.35023785362032
C           90.72532687322314       -0.01811190737751       -0.05757920551657
C           90.09818694080646        1.17512805274973       -0.46709466625064
C           90.74662558823941        2.37881826741547       -0.84577871765018
C           89.78127803766053        3.29022658773649       -1.17719339709523
C           88.51500712466687        2.66456369132776       -1.01918245212935
C           87.25562346541268        3.23196049017082       -1.24673103016405
C           87.24193683342732        4.63147805009532       -1.74299864242151
C           86.66032932256130        5.64025088380272       -0.97576077308312
C           86.64603085141283        6.95390606915610       -1.43062276302897
C           86.03989630501069        8.04418821450248       -0.58908037233081
C           87.21561394764073        7.25454411532852       -2.66491309236572
C           87.79568679739518        6.25858704880517       -3.44385142712280
C           88.42047350397596        6.59340401938368       -4.77132207999137
C           87.81007998568133        4.94847719523692       -2.97548151210712
C           86.03116346705573        2.59479535838037       -1.04377537464608
C           84.74633121058912        3.19741845015311       -1.35027516411248
C           83.80788966897832        2.28611027341456       -1.01999189764767
C           84.52129724170365        1.12758348769397       -0.51995859771510
N           85.85238515399791        1.33592580715318       -0.55510009016923
N           88.75759429213716        1.38999163769537       -0.58047599373687
C           87.34825845100188       -4.65063706463555        1.70981819202137
C           86.78321485163593       -5.69696440655503        0.98298364379301
C           86.79814785426416       -6.99451588566962        1.48501967408817
C           86.17692346914755       -8.11645562667335        0.69763646868169
C           87.37557383837751       -7.23825947091946        2.72697812761364
C           87.94197881439563       -6.20320409389775        3.46582506632754
C           88.54518255782048       -6.47626583693172        4.81707586584409
C           87.92717837668197       -4.91170109129123        2.95122070304624
H           82.77478379286278       -2.47732591166556        0.99493282552567
H           84.65899315386831       -4.24737249155589        1.67982337759930
H           86.55331784972772       -0.78138245021418        0.18949021553954
H           89.98553438136595       -4.32559624175961        1.39693982133622
H           91.85481296901445       -2.51215338004490        0.71982683066372
H           91.81500381659794        2.52254601559335       -0.85475963717007
H           89.93075172286269        4.30897719615544       -1.49553840348059
H           86.22910822633435        5.39436359026160       -0.01158254945450
H           86.81870523838644        8.53540721250682       -0.00125108929648
H           85.56382945325237        8.79824627738001       -1.21645369701748
H           85.29896739861653        7.63808541059463        0.09957255445877
H           87.20306031127069        8.27812095355413       -3.02510718432429
H           88.29445231273196        5.77191901847588       -5.47703784569951
H           89.49114629350647        6.76888342689659       -4.64364138015427
H           87.97625362665364        7.49435250421593       -5.19460732382837
H           88.24656468983022        4.16135612730824       -3.58068237636891
H           84.60484107091787        4.17885773532136       -1.77299914953953
H           82.73555587707692        2.36270546354670       -1.10312877133672
H           88.03685501302101        0.70961661708815       -0.36391577948504
H           86.34885080974399       -5.49751816282020        0.00938538771664
H           86.61722806617749       -9.07514484145457        0.97193743936516
H           86.31121663105496       -7.95908004701881       -0.37286867847387
H           85.10460324215494       -8.16306569888869        0.90106486157750
H           87.38852786239815       -8.24833526311584        3.12343723592138
H           89.30420491382658       -5.73310807088773        5.06166550365831
H           88.99824622745069       -7.46752764291281        4.84625403755659
H           87.76896939760699       -6.43567984055353        5.58471310088916
H           88.35602049750271       -4.09481899565540        3.52117945912031
C          102.46435131142846        0.01385982262365       -0.04763572304694
C          103.09189752704808       -1.16113489146951        0.41076109981935
C          102.44373190893744       -2.32793960942400        0.89176371475811
C          103.40905354371047       -3.24252866228868        1.21404770698167
C          104.67519894396693       -2.66147916051546        0.93214715686370
N          104.43246128982463       -1.39978335828121        0.45779493852506
C          105.93387811114879       -3.24556170574215        1.11704238928062
C          107.15943784721915       -2.62211666294792        0.87972817710170
C          108.44500011995613       -3.27744238045026        1.04068160948558
C          109.38388336321297       -2.35890775919117        0.73241261287149
N          107.33832889309740       -1.33866044198986        0.46059708048335
C          108.67014691678942       -1.14986214679119        0.37208844683970
C          109.32582247700120        0.03890688702456       -0.00789701254237
C          108.69803383112254        1.23038190488508       -0.42078575260211
C          109.34529200703174        2.43491143121985       -0.79904694674720
C          108.38015456578546        3.33640557553759       -1.15703132870014
C          107.11515243054244        2.70491716314193       -1.01228702231972
C          105.85689439940474        3.26452029433353       -1.26470980464636
C          105.84742885569861        4.64973579632664       -1.79987461121877
C          105.26016443881272        5.68296882726881       -1.07044063663570
C          105.24780365864319        6.98044566139374       -1.56952716246325
C          104.63450738886920        8.09829074643947       -0.77038690145793
C          105.82511281572074        7.24026802954759       -2.80969916303452
C          106.41202056935970        6.21980871615900       -3.55045779634771
C          107.04461871793792        6.50779053765056       -4.88520785144179
C          106.42455931680212        4.92624372229411       -3.03784773889595
C          104.63167854433237        2.63060118128056       -1.05742328015781
C          103.34713037695485        3.22984462276884       -1.37185870435713
C          102.40801930862126        2.32507524614319       -1.02589595715899
C          103.12088890397656        1.17179863632262       -0.51305290452022
N          104.45198012494365        1.37850238650262       -0.55170454984157
N          107.35790139904940        1.43692681884839       -0.55561319595952
C          105.94370927313091       -4.64714614684976        1.60734972690802
C          105.37443063323124       -5.66227678482029        0.84037904214137
C          105.38519598438941       -6.97863715728998        1.29037427740086
C          104.75917956738610       -8.06703161037156        0.46082780721649
C          105.96309092836908       -7.27316702376411        2.52107494534498
C          106.53297723377425       -6.26978178355816        3.30002072107485
C          107.13698563370809       -6.60079804217250        4.63790945951831
C          106.52184709823608       -4.95875041420439        2.83737392527280
H          101.37551174774791       -2.44289776041512        0.98046890165610
H          103.26003840720401       -4.22982469302254        1.61975952681054
H          105.15267842081461       -0.73913807116066        0.18567694998083
H          108.58717912707016       -4.30382320088706        1.33771877450199
H          110.45680695933297       -2.46620871050676        0.73158585507542
H          110.41283233373181        2.58491727088593       -0.79244804679630
H          108.52835105229558        4.35249224558398       -1.48442246510487
H          104.82282363288626        5.46925666970734       -0.10137985921560
H          105.41075212955882        8.62071146102367       -0.20658222318903
H          104.14889471136975        8.82146323744072       -1.42623241000106
H          103.89997096454954        7.71383060579321       -0.06276077043681
H          105.81311657164794        8.25113108939425       -3.20418184322837
H          106.87429266917331        5.68415753550999       -5.57922083577803
H          108.12340236656645        6.63161601919350       -4.76600654283508
H          106.64197215802994        7.42345640889985       -5.31819900701930
H          106.86674253927832        4.11986658484326       -3.61283778506543
H          103.20585010925600        4.20537045552800       -1.80809757346307
H          101.33562210203509        2.40200721098544       -1.10805348709879
H          106.63812998293490        0.75335062074671       -0.34614832268168
H          104.93985401956073       -5.42265575148276       -0.12403528639019
H          105.22852275780173       -9.02973791783718        0.66387780689870
H          104.85156245478976       -7.84587506478479       -0.60273763368290
H          103.69617354601925       -8.14971400191094        0.69886420442907
H          105.97347657791319       -8.29820875652933        2.87716749313444
H          107.85549709128509       -5.83899290050659        4.94029031475067
H          107.63944422517099       -7.56803844344693        4.60651228976438
H          106.35301692603024       -6.65146843567113        5.39694458224298
H          106.95275615792526       -4.16640721203358        3.43947670650665
