187
 energy: -331.271052453469 gnorm: 0.000444128216 xtb: 6.5.1 (b24c23e)
Zn          32.00361816292919        0.00965545565774       -0.01516921676266
C           28.59716881153818        0.06804024587495       -0.12988462397723
C           29.23133371587986        1.29442512862357        0.02735832986622
C           28.56091603656935        2.55508326898523        0.18250739709610
C           29.52210885826998        3.49974822162930        0.33470736409248
C           30.79318075301921        2.82824817679660        0.26279197604771
N           30.58120738103016        1.49309602498561        0.08234512352036
C           32.04613194017686        3.44013308522502        0.39545018518787
C           32.06513215878795        4.90979591770268        0.58894099847786
C           32.60031072626069        5.46083410958068        1.75766694224191
C           32.61303524963945        6.82962066371073        1.94262612335783
C           32.09629150422144        7.68136618253485        0.96042976622262
C           32.12206229720938        9.13824566233777        1.18078248302865
O           32.56769096658767        9.65799563518923        2.17193642691254
C           31.56513446428565        7.13284132159351       -0.20959379836178
C           31.54754579519780        5.76143486653143       -0.39123166113400
C           33.28253375486360        2.78483118327848        0.36590974978819
C           34.56519559303671        3.42828067482874        0.44255650640978
C           35.50686175404235        2.45521117193419        0.34877811763940
N           33.46970822455285        1.43695912784592        0.21670856879838
C           34.81054499779140        1.21017737779925        0.20770144479333
C           35.43605871077539       -0.04473854073795        0.06539863460759
C           34.77840749446059       -1.28103653368600       -0.09198297277076
C           35.44196167943578       -2.54152913509466       -0.25203803897361
C           34.47509877812485       -3.48606272583277       -0.37636147168891
C           33.20961320421432       -2.81090246341951       -0.28670280592553
N           33.43199511856221       -1.47017141496770       -0.12233601857216
C           31.95591227252075       -3.42462603189324       -0.39085825339628
C           31.93530874785801       -4.89926450542526       -0.54029851650144
C           31.38041201704177       -5.48764025630436       -1.68052705550743
C           31.36095691697307       -6.86370880826012       -1.82156434240015
C           31.89150242564821       -7.68150044111790       -0.82074592497401
C           31.87844583860767       -9.14993762794759       -0.94447626962862
O           32.31691685237964       -9.89672415343870       -0.10707832671017
C           32.44515345129609       -7.09368561346610        0.32167808409438
C           32.46953603876694       -5.71935424353095        0.45869330784333
C           30.71929182454383       -2.76701559278819       -0.36572674929237
C           29.43070745723985       -3.40521413791955       -0.42951674087595
C           28.49486407335107       -2.42588009917189       -0.36193176437718
C           29.19855411866560       -1.17943431776316       -0.24416816845900
N           30.54276075659789       -1.42003156710530       -0.24501742318122
H           27.51190232236901        0.08478169257090       -0.15144416195646
H           27.49034383076184        2.68727582926258        0.18250036173202
H           29.38645035647655        4.55734082428074        0.49498660748738
H           32.98994650133626        4.80283594617912        2.52628572731935
H           33.02014629101808        7.26381555641919        2.84952011384314
H           31.69093800104375        9.73315422922447        0.34733183486037
H           31.16676089453027        7.78653382355445       -0.97888823804349
H           31.14646355267283        5.33982185049019       -1.30616807976580
H           34.72406147662211        4.49012496346915        0.53982140796721
H           36.57955593376971        2.56414567560221        0.36687999502251
H           36.51149111426758       -2.67795540304510       -0.27139136480056
H           34.60608662666659       -4.54501327599470       -0.53016080494789
H           30.97958754553325       -4.85558996276430       -2.46505096833911
H           30.93359035654386       -7.31107377274249       -2.71315968721454
H           31.42355298459638       -9.52395431769071       -1.88661120027647
H           32.85164131815305       -7.73625857373108        1.09533065104850
H           32.88788852426885       -5.26757899019763        1.35110941082556
H           29.26689286841207       -4.46843114873994       -0.50242002509316
H           27.42110943973814       -2.52744116335863       -0.38028794051443
Zn          58.95557620500780       -0.03296412877658       -0.05725303740591
C           62.36389448215411       -0.07504981996998       -0.11579242572591
C           61.73001079128074       -1.31119869716769       -0.14870358042607
C           62.40051294332874       -2.58130780237529       -0.16151906505566
C           61.43897453294320       -3.53780314506530       -0.16474635233718
C           60.16786255943278       -2.86256104058422       -0.16693980056738
N           60.37986511357995       -1.51533291383184       -0.15043352413291
C           58.91388709701523       -3.48614268068686       -0.15239549540459
C           58.89296094524568       -4.96847991612555       -0.16186967953935
C           58.33216911339372       -5.67038352011143        0.91004944783159
C           58.31635164218511       -7.05149970104465        0.90927260222954
C           58.85516281033407       -7.76465084919571       -0.16699822401445
C           58.82411291677496       -9.23777895557027       -0.14565469235806
O           58.35707027931269       -9.88494264433124        0.75676882663333
C           59.41197126447337       -7.06506018633164       -1.24054563339635
C           59.43301490231791       -5.68166387837941       -1.23578311659060
C           57.67662127249372       -2.83251213079338       -0.12080560417853
C           56.39476635391891       -3.47995770896186       -0.17324337271670
C           55.45232220956109       -2.50347901542105       -0.14636751401649
N           57.48862486157325       -1.47742878451335       -0.07500826427234
C           56.14755375757147       -1.25150407851612       -0.08224799802436
C           55.52146865283318        0.01018691604745       -0.03505294482609
C           56.17896968833082        1.25536846045549        0.01768134792073
C           55.51559395136600        2.52584130643049        0.04480123356495
C           56.48248728997119        3.47781757751574        0.07964279739182
C           57.74777297435741        2.79631692992154        0.08125296520841
N           57.52541029525140        1.44634084798814        0.03556897913553
C           59.00172454508724        3.41813441232520        0.08678996913037
C           59.02206733833143        4.89878935897723        0.15765778459692
C           59.58593813852579        5.64845201383738       -0.87876934601185
C           59.60480694877618        7.03029052685991       -0.81562392081386
C           59.06515225951843        7.69177174241601        0.29029777162589
C           59.07759695493800        9.16250153254487        0.38400869121427
O           58.63358579501528        9.77797803165369        1.31944681523724
C           58.50298894248286        6.94225877377272        1.32920899572125
C           58.47876242638046        5.56268869160807        1.26207584795735
C           60.23911567881309        2.76402738515904        0.03086074043189
C           61.52703857756376        3.40476190914272        0.08120473545452
C           62.46400192811178        2.42615306296610        0.01901098850262
C           61.76149026586523        1.17585402793956       -0.05838118728041
N           60.41689802337100        1.41397687500865       -0.04563987936151
H           63.44941262296551       -0.08862121829125       -0.11965740290705
H           63.47122218888042       -2.71239948812323       -0.15865029385913
H           61.57414306414783       -4.60748827532753       -0.15426693695951
H           57.92462438220240       -5.12050463524320        1.75095248690553
H           57.88953966811629       -7.60263641828629        1.74042501632958
H           59.27340904378613       -9.71646482305191       -1.04181851491445
H           59.82750496709940       -7.61044662938733       -2.08181706436328
H           59.85416617979500       -5.14191257725569       -2.07664657737364
H           56.23758604198714       -4.54455033448329       -0.23801645731700
H           54.37990225660343       -2.61361069520687       -0.17199732215227
H           54.44619888182436        2.66406578392545        0.03186282682748
H           56.35196844518638        4.54789608514112        0.08867282701306
H           59.99433788421516        5.13859155276133       -1.74415420710529
H           60.03893189014536        7.60404154445617       -1.62807563675456
H           59.53804278584057        9.67095871653105       -0.49006665479285
H           58.08959687859509        7.46399235166723        2.18569644319311
H           58.05337072428861        4.98442605128902        2.07458607223818
H           61.68930929724027        4.46721280057885        0.16758400471170
H           63.53767355091873        2.52933475754621        0.03275462550511
C           38.06378203213752       -0.06751228762019        0.06687007286041
C           36.84164608822953       -0.06109420161037        0.06950305072772
C           39.41298664597080       -0.06755097979612        0.05754758626360
C           40.63516874147286       -0.06178546846142        0.04645563169264
C           51.54413294765789        0.03095377981473       -0.05699072584985
C           50.32194727636906        0.02330496268566       -0.05648937681253
C           52.89359776337336        0.03096924912182       -0.05533043741556
C           54.11565287334976        0.02564210140599       -0.04564596967761
Zn          45.47876654535986       -0.01890556576576       -0.00720279026025
C           42.04014818074950       -0.05059082042874        0.03268600409256
C           42.67637360572409        1.16237605621647        0.36534686312644
C           41.99122738545486        2.37906098800298        0.68698058208296
C           42.94171051989517        3.30816577122715        0.96415313827506
C           44.21712208483967        2.66345879317658        0.82104079580532
N           44.01911610525413        1.36231282010452        0.44518317422129
C           45.46012541843315        3.27863113941978        1.00977411218113
C           45.44984698558415        4.68871438046509        1.46840501514510
C           46.00990217475674        5.69907894820971        0.68075142033819
C           45.99816705655680        7.01036743557788        1.11568125741937
C           45.43188852023658        7.34168474532196        2.35118472973623
C           45.43612974479398        8.74723134503391        2.79534478254329
O           45.90087472744406        9.65183377720688        2.15001813787622
C           44.87322068368297        6.33302836547671        3.13995242721607
C           44.87958366414668        5.02133163687528        2.70063054440179
C           46.71030293663270        2.68135516189561        0.81277775436957
C           47.97935429906713        3.31008485838234        1.05214061415372
C           48.93960287267403        2.39807993036655        0.75344857793811
N           46.92222540119427        1.39674377843399        0.38950131766731
C           48.26717859322632        1.20180577811386        0.34073134581377
C           48.91662386336628        0.01266637218680       -0.04712818367114
C           48.28020624235116       -1.18832087248393       -0.42037032377801
C           48.96441977766222       -2.37329775741920       -0.84586509155873
C           48.01425746166048       -3.30482717667540       -1.11587299808893
C           46.74010404739224       -2.69909510469642       -0.84678068227840
N           46.93836101128328       -1.40867909151895       -0.43492676904400
C           45.49699102378264       -3.32152927976121       -1.00802367256652
C           45.50182205173655       -4.73662834327632       -1.45109660905177
C           46.09713514272121       -5.72567171892245       -0.66311074204475
C           46.09744888588710       -7.04604191560366       -1.07657967919614
C           45.50775186518945       -7.40341736875317       -2.29162659320997
C           45.49840153821648       -8.80175439194113       -2.75755019675888
O           45.00916235994675       -9.15668187799655       -3.79959096048175
C           44.91465741569676       -6.41342153138764       -3.08236347141303
C           44.90877024888204       -5.09657725798911       -2.66539101779605
C           44.24744986415136       -2.72793316350615       -0.79531960823666
C           42.98074589923881       -3.39552153514236       -0.90887116000868
C           42.02015055440067       -2.48186856677296       -0.61609168059761
C           42.69047244290537       -1.25230051660421       -0.31259475062080
N           44.03456604040539       -1.42885923121725       -0.42018804941214
H           40.91988789635307        2.50169730318222        0.69161038943371
H           42.79345409259430        4.34284489001097        1.22815807724698
H           46.43887920510647        5.44765467793956       -0.28268633398346
H           46.42535773979915        7.80081614313226        0.50794897208367
H           44.97032137773073        8.91213009050502        3.79037029786632
H           44.43464774670804        6.58051277584218        4.10123419844613
H           44.45598014067431        4.23866540458645        3.32000813124263
H           48.11756518151957        4.31610263543476        1.41397422100226
H           50.00987548223058        2.51548130877086        0.81284108155775
H           50.03484459029819       -2.47048051592452       -0.93301339067179
H           48.16201170380128       -4.30966212277982       -1.47741167364388
H           46.54505783844149       -5.45349585621804        0.28607365921445
H           46.55601772147608       -7.80836490426298       -0.45503317883671
H           45.98536525566768       -9.51777385647210       -2.06171641163634
H           44.46239928086210       -6.69924087398516       -4.02601493810515
H           44.45836849059199       -4.32975685251076       -3.28559788990602
H           42.84494787965648       -4.43353511910055       -1.16622335299934
H           40.95121042096093       -2.62282668715995       -0.59857139572900
