276
 energy: -439.413508252473 gnorm: 0.000685445320 xtb: 6.5.1 (b24c23e)
Co          50.76854231945303       -0.04148115501918        0.21728106812641
C           47.55072484131635        0.20365059896051       -0.64818422125776
C           48.17442298540152        1.33104520378369       -0.15184591143727
C           47.49993129852915        2.56697299713341        0.10611834242487
C           48.37742886576990        3.35779014298713        0.76970766022306
C           49.61286340506469        2.63433357176523        0.84680437765888
N           49.46491682247587        1.38373754799615        0.30644540074402
C           50.81630661009033        3.17071849964218        1.29243536911080
C           52.02130763780040        2.51305885337060        1.08835559480557
C           53.30223370835846        3.14544064953477        1.18927482503237
C           54.21235665444411        2.26658751912944        0.70131469418232
N           52.16109616348981        1.23808875265293        0.59426265778742
C           53.49562132001005        1.07698989242980        0.36568545348701
C           54.11514487052253       -0.12998129559559        0.01504217468689
C           53.41520219050476       -1.34331284203544        0.07443415626761
C           54.04803032940002       -2.62341575020899        0.11234460054295
C           53.06792051754373       -3.53729049942218        0.31897264199435
C           51.83006288309424       -2.81722230331309        0.34324549025840
C           50.58384712318206       -3.42385044559724        0.28462354882831
C           50.50956717001842       -4.89703383895163        0.43194254774557
C           50.13550650056148       -5.70530958230723       -0.63977809370630
C           50.08023405121671       -7.08790270214925       -0.49490997203164
C           49.66167714773239       -7.95308407761804       -1.65299353927183
C           50.39921835452318       -7.65830364228116        0.73320884344670
C           50.78261607334491       -6.86416530983962        1.81045835379867
C           51.11439664490695       -7.49297920420982        3.13671661388940
C           50.83960273858786       -5.48397455755135        1.65271793119715
C           49.43755922500011       -2.70021285493716       -0.02839553565300
C           48.17334192822761       -3.28272496964856       -0.37109935354753
C           47.36340665454785       -2.26671005818299       -0.75500428383115
C           48.10752289183833       -1.05731022885564       -0.57323944516013
N           49.37745692834091       -1.33614204289003       -0.13839724991743
N           52.06608873703967       -1.46779058050774        0.21960332315041
C           50.84711233830886        4.52917203118324        1.88455402212521
C           50.47095918701194        5.64659862063565        1.13992701672743
C           50.51037927366228        6.91577794178472        1.70556349939539
C           50.12669880532426        8.12569486761235        0.89702082539290
C           50.92794990873678        7.06264344347505        3.02589335137439
C           51.31337561784358        5.95829567419667        3.77854783482962
C           51.74778598579900        6.12233091776940        5.20994694453861
C           51.27543492991327        4.69336135935068        3.20030170857075
H           46.52659766262220        0.29280036780390       -0.99181935322266
H           46.47374023352362        2.77035115699390       -0.15618618838561
H           48.21670334664837        4.34961316120162        1.16000693110497
H           53.46650503308932        4.14738698212842        1.55147999571283
H           55.27973457189800        2.38678232698433        0.60869269924584
H           55.11029667316006       -2.78563889696995        0.02708864348232
H           53.15893040774516       -4.60772235234173        0.40770386445404
H           49.91089635413522       -5.25232247661970       -1.59911772127447
H           50.09246270432043       -8.95095488215156       -1.56930338935052
H           48.57379020010460       -8.05203892951306       -1.66761379637840
H           49.97379848430180       -7.51138456432850       -2.59966766984147
H           50.35669279604763       -8.73625150862785        0.85103173664010
H           51.78322583598277       -6.85426710677561        3.71375482272993
H           50.20024032484351       -7.64078438906366        3.71624201904063
H           51.58718186429186       -8.46552646882324        2.99708842880918
H           51.13278955206096       -4.85264393771952        2.48435667378983
H           47.94794240957461       -4.33612785473157       -0.33338713844997
H           46.33961373955131       -2.31073993083177       -1.09130376105602
H           50.16749936061348        5.52281076440768        0.10621721480549
H           49.51727024918237        8.80794478156077        1.49090823570715
H           49.56820475749296        7.83905227158130        0.00605334028383
H           51.02399659647720        8.66281449418579        0.58175027094626
H           50.95726766677991        8.05218144720492        3.47048989295280
H           50.89683678004634        5.96301951209028        5.87622957884086
H           52.13530782363767        7.12570290019274        5.38700996008585
H           52.51854626858088        5.39507338044323        5.46644606168645
H           51.56818746419864        3.82300822069952        3.77733261401783
Co          82.48031570147123        0.17537095643068        0.04505246332393
C           85.58467657117627        1.40351664174147       -0.00635238730299
C           84.97417987120100        1.14097452363944       -1.21740823741082
C           85.62632017480557        1.25663266968264       -2.48615762564684
C           84.76423618512436        0.77291306094199       -3.41297994398714
C           83.55378576070245        0.43903022802111       -2.72040492825677
N           83.71530599330114        0.62381493563798       -1.37085770952859
C           82.34620317622965        0.13426439742042       -3.33792963523458
C           81.15959717426711        0.08456770798687       -2.61680277783344
C           79.85771403216515        0.14435060926991       -3.20942713268971
C           78.96661496047479        0.23406131321574       -2.19096961863988
N           81.05722868573952        0.10233755103664       -1.24804213312685
C           79.72021592767403        0.16394010937220       -0.97856524939352
C           79.14363429701767       -0.04343374664222        0.28043776153281
C           79.91820460057305       -0.46685596731675        1.36879633582375
C           79.37869544675149       -1.04015846274744        2.56039714934780
C           80.43292793316837       -1.39426911598760        3.33627464847704
C           81.61470641791608       -0.97711401211716        2.64262422044837
C           82.86770873460054       -0.89890079455805        3.23230695808957
C           83.05247914695707       -1.48211573306338        4.58298830197441
C           83.27524901215213       -0.66580856692711        5.68973845139015
C           83.44453938314579       -1.22232875059651        6.95379541813069
C           83.65868137329826       -0.33208425056677        8.14796879227973
C           83.39029285794531       -2.60422306494979        7.10329504493415
C           83.16134828623164       -3.43195040645282        6.00739806651022
C           83.12244290600241       -4.92611130879256        6.18174004740614
C           82.98878773818615       -2.86475885272549        4.74992281395626
C           83.90788875242545       -0.19188900986688        2.63722405074807
C           85.13328173925527        0.16674802287749        3.28878816553767
C           85.83936261765736        0.92096594040445        2.41229494896145
C           85.07960927405838        0.96029561513673        1.19914969506847
N           83.88901180938635        0.29800624250662        1.35876534992370
N           81.28004043982264       -0.44654032014935        1.41785640427393
C           82.28073105053819       -0.02960674425446       -4.80855613770252
C           82.64493826464107        1.00492806196966       -5.66987555942380
C           82.57540372178988        0.83223266304431       -7.04742419526811
C           82.95123592118564        1.95318259026243       -7.97864405354379
C           82.13587250248915       -0.38452530541270       -7.56260593892245
C           81.75875709865912       -1.42201988794270       -6.71635442617164
C           81.29723474037503       -2.73899068313690       -7.27956137627061
C           81.83016527374959       -1.23718206647632       -5.33947286002928
H           86.56625856362319        1.86309261443319       -0.01426785278670
H           86.62996420948231        1.62552398295597       -2.62708077239661
H           84.91893845215309        0.66664615324626       -4.47441220831464
H           79.66434493227580        0.15173783002195       -4.26992598545218
H           77.89168287492058        0.29945836716613       -2.24290422702552
H           78.32680221108525       -1.17380380818797        2.75465203066498
H           80.42253772344444       -1.85550574378018        4.31058148821855
H           83.29603983318393        0.41120906167811        5.56522687846993
H           84.19156493863670       -0.86144928070871        8.93797082368405
H           84.22715277353893        0.55636848310684        7.87190161714271
H           82.69458310012216       -0.00700918310259        8.54584732993986
H           83.52433917385733       -3.04306694288295        8.08671485139407
H           82.56799869074928       -5.39867828804450        5.37092573253431
H           84.13876539852347       -5.32668257502129        6.17916049992356
H           82.65683108591321       -5.19296720148377        7.13092589379588
H           82.81573755691691       -3.49747146708404        3.88629169652766
H           85.40482804143730       -0.11701277120469        4.29263783982853
H           86.80775480693489        1.37737166838173        2.54312062089457
H           82.96184644340597        1.95689343070171       -5.25853889483377
H           83.54456322585555        1.57706180926081       -8.81297288884662
H           83.52397920503637        2.71935368308840       -7.45630187832502
H           82.05049845018645        2.41640786608091       -8.38736666530527
H           82.08213530605484       -0.52199363930026       -8.63774121499636
H           82.14137004701807       -3.42878281773397       -7.35024974801574
H           80.87859027284703       -2.61034761824555       -8.27780244375349
H           80.54325251978403       -3.19240769210691       -6.63560166906361
H           81.54680336507478       -2.04049136087929       -4.66812366771855
C           55.48286433367227       -0.14277783768079       -0.28410626227242
C           56.65927645085786       -0.15080056038501       -0.60518563249166
C           65.97778999341340        0.03220353121168       -0.47490791463033
C           67.14015605051515        0.16226039215003       -0.12683749176536
C           76.54779388664438        0.20320984065604        0.53854074031267
C           77.75254166540535        0.06266942507859        0.42029325368500
Co          61.33500752714637       -0.20045649059292       -1.38415394646947
C           58.01622947073805       -0.16497736065457       -0.94750692284084
C           58.68966860115255        1.04652659420718       -1.15096605354158
C           58.04012673853283        2.31714138554873       -1.21068191322539
C           58.93118749000836        3.18503879850704       -1.75443328224574
C           60.13831048838532        2.45167367803569       -1.97832998495325
N           59.98295660877221        1.15004469132284       -1.57974232646596
C           61.31582222449938        2.99878715355590       -2.48411638396815
C           62.52897849013662        2.33539066850507       -2.36852124352447
C           63.80908540607673        2.90729201625879       -2.65808349496164
C           64.73622208144563        2.09501787223999       -2.08967011218701
N           62.69042903893323        1.11929509969930       -1.73944390235258
C           64.02648503836627        0.99572756877415       -1.51961536246305
C           64.63815637668087       -0.08336303324240       -0.85632573012688
C           63.96620899553996       -1.30279873370708       -0.69733092247686
C           64.61208541649657       -2.52731969037462       -0.34558174663110
C           63.73686913672623       -3.52497586914965       -0.63141618427229
C           62.53961298357231       -2.90165109837217       -1.10459015825559
C           61.37474192144170       -3.58200111953843       -1.44895270877418
C           61.43386992538490       -5.05572967399401       -1.56917172782249
C           60.67861304891739       -5.87598042809605       -0.73198471968736
C           60.74688406084917       -7.25973074950073       -0.85128299923487
C           59.94911213140510       -8.14159333700023        0.07090236695443
C           61.57754673218460       -7.82139257045372       -1.81644021861535
C           62.34440248342480       -7.01623071836065       -2.65363959964221
C           63.22678526739686       -7.63454424753021       -3.70401156712354
C           62.27215155356570       -5.63394699832494       -2.52204088443065
C           60.15880684758814       -2.92197516857694       -1.56732375033366
C           58.88569935605705       -3.56506710500588       -1.69002407540154
C           57.94561440137739       -2.62206010898656       -1.42621216552801
C           58.64187679824622       -1.39413563493997       -1.21605805469638
N           59.98417485665023       -1.57252416045638       -1.35239934646520
N           62.68791504321447       -1.53904433166311       -1.11584363500653
C           61.26810029686001        4.36746006115658       -3.04387111465361
C           62.02299700846743        5.39789498919409       -2.48743194866633
C           61.96397070542229        6.68345511393517       -3.01814801084343
C           62.77206645162711        7.78937017907111       -2.39468617412470
C           61.14174801319071        6.93251434207705       -4.11104487769701
C           60.37388938184678        5.91479163357016       -4.67332124574534
C           59.49655260348037        6.20173954222748       -5.86165219633302
C           60.43806015133283        4.63653752545359       -4.13346322745551
H           57.02098348082490        2.50144968326598       -0.91166784364594
H           58.79859531750112        4.23378184729495       -1.96554164791258
H           63.97118382705798        3.82013610958795       -3.20757007009400
H           65.80864426555969        2.20266118277901       -2.08536230924347
H           65.61962574874235       -2.60474896870310        0.03021705301393
H           63.87226875820533       -4.58771641479957       -0.51156996940006
H           60.05292006184245       -5.42877636837797        0.03248480135644
H           59.63141825238093       -9.05045613661788       -0.44075062901397
H           60.56078744181257       -8.43154435313752        0.92830643957680
H           59.06788009007166       -7.61895680679264        0.44310966904868
H           61.63158124451579       -8.90080948249156       -1.91421171048595
H           64.06370808499017       -6.97862236517829       -3.94396215329670
H           62.65305405185073       -7.80256834733126       -4.61832138769747
H           63.61581681471260       -8.59568412069350       -3.36708669607235
H           62.85786012619322       -4.99438293793478       -3.17322390174140
H           58.73656097741606       -4.60593215763808       -1.92636645180586
H           56.87336454008324       -2.73138710386667       -1.40816550516989
H           62.64163941496262        5.20071386112472       -1.61886280356440
H           62.83167947946104        8.65175265318840       -3.05844553785919
H           63.78297036591479        7.44667763587956       -2.17034302765832
H           62.30878754925102        8.10763407108456       -1.45824866913510
H           61.09238226157070        7.93246171624553       -4.52976161008335
H           58.94754624726458        7.13316704265650       -5.71752730037533
H           58.78320681635640        5.39401940488584       -6.02441806409132
H           60.10829394485349        6.30678415381029       -6.76028620647301
H           59.85309585029386        3.83254626901296       -4.56648744878175
Co          71.80221372114467        0.58047868262981        0.71729476941837
C           68.48452653041861        0.32409838585899        0.22034487200643
C           69.12653426344525        1.53042667946392       -0.10822469053731
C           68.45422187251077        2.70971764418299       -0.54948792239311
C           69.41559784850786        3.62302305009978       -0.83841005237111
C           70.67462928555685        2.97499591209059       -0.62611816338258
N           70.47327582373654        1.71977276691666       -0.09223104372893
C           71.89410733606779        3.43004846217037       -1.10494365782202
C           73.05416638917933        2.66865317427977       -0.98193959725230
C           74.28036007407952        2.93237438423338       -1.66909366607698
C           75.17661198493035        2.00758226857676       -1.24054718482032
N           73.19273875649478        1.57777264004866       -0.16391108283746
C           74.50423412209388        1.20510592560010       -0.26841125016392
C           75.15996201963539        0.37001949271047        0.64376719680000
C           74.47097740739380       -0.21927146913867        1.71402410199406
C           75.09737283260930       -0.83729257936287        2.83744780654001
C           74.10447236136272       -1.35939655114654        3.60119777566805
C           72.87697841918163       -1.10579048277008        2.90929495380173
C           71.66803512232509       -1.73288678980267        3.18220077042461
C           71.57858114147288       -2.70158599726832        4.29713306692318
C           70.63163066055736       -2.51437665262556        5.30398138243176
C           70.53438802620209       -3.41494412326490        6.35873872096637
C           69.53183489234219       -3.19286209364257        7.45869137092716
C           71.38763797873644       -4.51407046849185        6.39775831316242
C           72.33040621651409       -4.72079616188712        5.39517247186483
C           73.22625877063763       -5.92943917021824        5.43129746940305
C           72.42181352623344       -3.81112499148440        4.34738400464651
C           70.54849863970489       -1.53987257283143        2.37910738769607
C           69.35984315759175       -2.33453704690403        2.42845453653547
C           68.49644328509788       -1.80555140432395        1.52472788016808
C           69.14603284531098       -0.66807117783012        0.95498662610644
N           70.41764524847642       -0.54873044510055        1.43946399783601
N           73.11534615967531       -0.33212762471196        1.79523245752920
C           71.96498689856701        4.70926793634901       -1.84448675207409
C           72.83268688352688        5.71198073853310       -1.41338672900637
C           72.90921878683055        6.92193159944718       -2.09514955086200
C           73.85595899917374        7.99411719309983       -1.62776908793063
C           72.11789232149029        7.12024394498500       -3.22222833270887
C           71.25430918129125        6.12489002101645       -3.67160096554761
C           70.42347475907918        6.34308589783026       -4.90723251732348
C           71.18178479050047        4.92185077200038       -2.97906145439053
H           67.38367943471063        2.82386572076160       -0.60069395543416
H           69.29046874932808        4.63761401224234       -1.17988046150335
H           74.42424415363190        3.71657329798494       -2.39459484259865
H           76.21048419019591        1.89312513377976       -1.52373715459938
H           76.15995179188933       -0.84851285137309        3.01859730306093
H           74.19003666142559       -1.88361783496532        4.53902094687153
H           69.98013741529144       -1.64815026292911        5.26727754477405
H           69.15755156071485       -4.14345659059467        7.83958638185429
H           70.00221127203341       -2.65769401610016        8.28675616066030
H           68.69018885254297       -2.59805030377496        7.10372930242756
H           71.31449039222498       -5.22030454788156        7.21846040555471
H           74.15697875081908       -5.73963216539992        4.89645395357699
H           72.72662197389249       -6.77621280008657        4.95516782358204
H           73.45963425259448       -6.20848953776625        6.45909298261732
H           73.13801666779798       -3.97470874549423        3.54970060328198
H           69.21902485311075       -3.19405740947796        3.06365212223377
H           67.49554298520341       -2.12581367703386        1.28382717440379
H           73.43570500465991        5.54947223654313       -0.52676245368800
H           73.51738511409171        8.97956377711194       -1.94789072163723
H           74.84875684080751        7.82113077502862       -2.04943140626912
H           73.94432208939567        7.98610975799313       -0.54111872185894
H           72.17409428938106        8.06210561002794       -3.75830263948088
H           70.07711815565672        7.37554963118686       -4.96285810784726
H           69.55883345363958        5.67942791184069       -4.91734191229013
H           71.02154022885838        6.13852335833926       -5.79813709945403
H           70.52811242807827        4.13204864236429       -3.33251020528237
