394
 energy: -681.670984821194 gnorm: 0.000947019493 xtb: 6.5.1 (b24c23e)
C           48.39905443814150        0.09279185334646        0.03905853647320
C           49.02415882731659        0.09334955712641        1.27936764819026
C           48.39706108848708        0.07856863938768        2.55744926914125
C           49.37844445856881        0.08687145830541        3.50820494164797
C           50.63658225964557        0.10423307766697        2.84147085972808
N           50.37236539008011        0.11168292365056        1.50085951521381
C           51.90650432141923        0.10789430412490        3.42535750268924
C           53.11665688187983        0.08797206474415        2.73226606457375
C           54.41334583157023        0.05202609110605        3.38367097574095
C           55.33584084170931        0.06509247983395        2.39884787223942
N           53.27228309526198        0.12908306456227        1.38005601208709
C           54.60036872524818        0.11462848817164        1.14959917148917
C           55.23267293061065        0.15384224199745       -0.11014216131022
C           54.58093057880383        0.20440891856338       -1.35667079067272
C           55.20184515768587        0.26304142819545       -2.63307262963296
C           54.21644474570438        0.29942023512726       -3.58014779055704
C           52.96231980520071        0.26251928048915       -2.90966254349062
C           51.69360994635140        0.26985447225218       -3.49437343124555
C           51.65413423466245        0.28706820359577       -4.98777298188875
C           51.84533443747749        1.42838275621373       -5.77134405534895
O           52.05583834252864        2.68714100334581       -5.30204068435813
C           51.64618162114402        3.11373196491071       -4.01531437160573
C           51.85503589191487        1.32458806703647       -7.16799894448350
C           51.66403985324580        0.10247886213239       -7.77972558882427
C           51.45137733488913       -1.04290032077429       -7.02178641556276
C           51.44998716869126       -0.94760372227374       -5.63483551554267
O           51.27329926799547       -2.01331775984694       -4.80802491411549
C           51.03680877531912       -3.30049879412305       -5.34169231482420
C           50.48311227722683        0.19626317983080       -2.80063568945084
C           49.18037078578851        0.17339094201351       -3.44625674115335
C           48.26488932120527        0.12457412247971       -2.45738367717152
C           49.00811161989889        0.12332852113403       -1.20910629188481
N           50.34065091074667        0.16898751446355       -1.45421449787626
N           53.23459559785346        0.20958300541689       -1.56742774195713
C           51.94308610581649        0.05482351603300        4.91896394147470
C           51.79937880964148        1.16547813886080        5.75460497472843
O           51.63805449541152        2.45200265417036        5.34485097757722
C           52.06841146070452        2.92162863963989        4.08010943670013
C           51.78179291040015        0.99663575311022        7.14493576207966
C           51.91786042241156       -0.25992825066630        7.69874795014399
C           52.08131535839874       -1.37692801883646        6.88804532788787
C           52.08996005367869       -1.21666624297400        5.50708314187455
O           52.22185912870374       -2.24860499239143        4.63057059758489
C           52.41387607136269       -3.56685312014522        5.10280967938552
H           47.31423170492572        0.06872584203993        0.05626236124186
H           47.33020289302202        0.06407861968966        2.71432933770718
H           49.25366911753474        0.07853007397477        4.57900680173289
H           51.08031918522228        0.10699614272333        0.77447711639392
H           54.56730702731081        0.01505659741160        4.45023180972418
H           56.41083198090023        0.04434096643793        2.48168403606663
H           56.26774544164294        0.27539403412799       -2.79447961685002
H           54.33845384236998        0.34504370264411       -4.65012408804942
H           52.34572295868784        2.78391788795904       -3.23943257521539
H           51.63967743647963        4.20618727771131       -4.04594604266296
H           50.64020497588253        2.75414266339038       -3.77495059215282
H           52.01361242131844        2.22480110089904       -7.74810736916526
H           51.67275811729721        0.03272683939166       -8.86157132563144
H           51.29811482146109       -1.99303981074888       -7.51541225143135
H           50.91214283219497       -3.96596051740928       -4.48543640810814
H           50.12435477208092       -3.32141167943234       -5.94978747778358
H           51.88365901593168       -3.64682927844404       -5.94649802988603
H           49.02037072873530        0.18817907777455       -4.51261166498680
H           47.18908682242720        0.09265781395626       -2.53261376511078
H           52.52968167809092        0.15642313673202       -0.83970877585689
H           53.07720721185622        2.56702189267202        3.84364225304216
H           52.07767323497643        4.01219275326585        4.14961273738590
H           51.38078155853187        2.62148925496468        3.28189089476005
H           51.66039934269674        1.87475173684732        7.76642650699280
H           51.90334760685290       -0.37979793244526        8.77614347420535
H           52.19117011332573       -2.35504119512744        7.33655398495899
H           51.55377432538741       -3.91341338425612        5.68860443961627
H           52.51976479235458       -4.19467943409041        4.21615633447333
H           53.32276080935957       -3.64676023211647        5.71127875409542
C          129.67529616333115        0.08840296496629       -0.15467375912545
C          129.05757913603298       -0.03916971856636       -1.39213100365504
C          129.69259026255054       -0.16092575550053       -2.66061590519024
C          128.71705536601849       -0.25757100624540       -3.61254221111668
C          127.45490325988642       -0.20123968336639       -2.95580858511878
N          127.71072743557309       -0.06573282244844       -1.62035422969458
C          126.18838844753317       -0.27465716586758       -3.54217698385268
C          124.97534196841727       -0.25543786972562       -2.85417925981105
C          123.68317361368919       -0.37587611721657       -3.50430515386676
C          122.75538702615226       -0.29144884211965       -2.52814142624092
N          124.81180079487642       -0.09479987220051       -1.51183423736771
C          123.48306176572572       -0.11378972858563       -1.28596741205299
C          122.84256554168445        0.03231978510265       -0.03810903996715
C          123.48540237400992        0.21150340863397        1.20101406821271
C          122.85585660871629        0.37461929749259        2.46401401447339
C          123.83476403885514        0.51730988979451        3.40788662060150
C          125.09327704422253        0.44412026115984        2.74875345233168
C          126.35845017569568        0.53321046063060        3.33431393858337
C          126.39023738250572        0.69095977725800        4.81975810741574
C          126.18437396882318        1.89843322760055        5.49250181597341
O          125.96205954526859        3.10533215343522        4.90693610705719
C          126.37142429596443        3.41327092948666        3.58665053214906
C          126.17061647797541        1.92534361974896        6.89275259723652
C          126.37227456867275        0.76785761889169        7.61650593666885
C          126.59951696517510       -0.44109090231275        6.96961471758376
C          126.60475482166018       -0.47562994981161        5.57984066017832
O          126.79590899060304       -1.61151924930660        4.85613879412158
C          127.04338760489325       -2.84125911853720        5.50717300271452
C          127.57386626552223        0.42021875085554        2.65465513598106
C          128.87323601246206        0.48548461578774        3.30418012634744
C          129.79492099027237        0.36105011683220        2.32773225774523
C          129.05875599156658        0.22584520079078        1.08261062163629
N          127.72426604827569        0.26808251753463        1.31743101754224
N          124.83004810082622        0.26226780359589        1.41603096879408
C          126.15795886401838       -0.46249321727923       -5.02482506247744
C          126.28929023546144        0.57080031624845       -5.95625639574488
O          126.43703707179594        1.89012997793674       -5.66119067185366
C          125.98506455410813        2.46594391001809       -4.44878909072756
C          126.30801405149467        0.27900659574600       -7.32587890675327
C          126.18425724762184       -1.02336739687902       -7.76516635474286
C          126.03388663106267       -2.06544205264121       -6.85796043578463
C          126.02520295226719       -1.78293070936942       -5.49670433125651
O          125.90656636547335       -2.73366355634259       -4.53104602023350
C          125.72851615182999       -4.09105933569378       -4.88226632856108
H          130.76045881371655        0.08302608824045       -0.16523228808916
H          130.76048220911412       -0.17108285233394       -2.81060964092775
H          128.84837822662405       -0.36241931372883       -4.67744588618902
H          126.99786688547820       -0.01632746689185       -0.90043938665475
H          123.53525242189964       -0.51244744433031       -4.56356735618798
H          121.68152510828278       -0.34054421719966       -2.61308517464750
H          121.78887890508938        0.38005352868439        2.61871849812866
H          123.70574805979642        0.65801005580324        4.46874682897567
H          125.68224001997957        2.99790680140072        2.84329602460167
H          126.35888848491170        4.50351958363327        3.51201387747703
H          127.38488142987860        3.05014304577366        3.38624281168525
H          126.00055941061706        2.87400151998476        7.38591123315266
H          126.36056452046050        0.79959807578198        8.70011993591982
H          126.76124050617322       -1.33925325545142        7.55021416407893
H          127.17827740858729       -3.58156227962676        4.71637846715708
H          127.95355349273228       -2.79643104596359        6.11743526483620
H          126.19767736863601       -3.13923471802643        6.13876258025622
H          129.02700945712209        0.60523633842715        4.36482827967434
H          130.87072000137817        0.35842604022911        2.40950959763995
H          125.54081230339446        0.15661613617179        0.69980510937426
H          124.98116920200482        2.11419418129264       -4.18855972226240
H          125.95504616619122        3.54507666851264       -4.61862770462190
H          126.67059960136744        2.25478034939687       -3.62073225171302
H          126.41916475578086        1.09928650611467       -8.02362561040387
H          126.19790833133820       -1.23837518260514       -8.82768441421675
H          125.93326354965731       -3.08067681619253       -7.21728991169769
H          126.58882955129384       -4.47797985043635       -5.44187255929025
H          125.63723611185260       -4.63838496189849       -3.94221916681467
H          124.81638105262769       -4.23607215334849       -5.47360664438916
C           56.63787951005209        0.14611183123582       -0.13934678393041
C           57.86194104114462        0.13719042424883       -0.17330223478855
C           59.20454895541228        0.12932376342241       -0.20346735914359
C           60.43468966498516        0.12145392634422       -0.23855522868922
C           61.77253915198176        0.10810444407505       -0.26488465834572
C           63.00302871055592        0.09498593738814       -0.28717880461764
C           64.34560077431942        0.08624024523822       -0.30185165590003
C           65.57037418015287        0.07388979883750       -0.31167012032939
C           75.26001404256458       -0.01830209197900       -0.21800740380824
C           76.48531219994646       -0.02517589028276       -0.21945109420566
C           77.82670470747426       -0.02917877809918       -0.22613294807093
C           79.05808170349218       -0.02903452126703       -0.23573962018506
C           80.39478510421544       -0.03110981115693       -0.24807472653752
C           81.62613630630369       -0.03141857536044       -0.26139446405849
C           82.96744106319301       -0.03185590471026       -0.27272776296837
C           84.19280766479945       -0.03346050071945       -0.28147736135289
C           93.88225057285166       -0.03857881372896       -0.20751142657431
C           95.10762025684355       -0.04101111041644       -0.20942482564127
C           96.44894781047817       -0.03962697859766       -0.21204107461462
C           97.68035167799233       -0.04214053423610       -0.21957824426734
C           99.01703457594630       -0.04169975204909       -0.22805081035411
C          100.24840543976228       -0.04022437126483       -0.23746941074008
C          101.58970125902223       -0.03590371873823       -0.24651861615641
C          102.81498091028445       -0.03721576120157       -0.25829905974296
C          112.50472271331746       -0.06239470030219       -0.11979328879024
C          113.72934943267894       -0.06473073748238       -0.09563291221677
C          115.07156715946978       -0.06098187767120       -0.06912856040254
C          116.30217557255544       -0.05637600985848       -0.04950925344678
C          117.63995259001049       -0.04300802830849       -0.03035464055495
C          118.87047511671582       -0.02852675116779       -0.01576197416826
C          120.21318877122263       -0.01449204407202       -0.01393025020512
C          121.43763475580829        0.00499948399648       -0.01966007286758
C           66.97488897737354        0.06457011240733       -0.31462434554444
C           67.61151321507866        1.26968036371521        0.03915573103524
C           66.97380713068135        2.48561996720277        0.40002443321515
C           67.94819291202391        3.40639063391069        0.67057462678856
C           69.20964910914257        2.77992358089029        0.47888422546772
N           68.95481841184770        1.48904765393642        0.10025266607976
C           70.47196176567081        3.35415656553108        0.66013221460514
C           71.69395866569626        2.70370287169760        0.49691259280499
C           72.98123759000731        3.35322262130104        0.66726321288321
C           73.91910601263997        2.41598303124046        0.42082287488021
N           71.87148919835089        1.39984243002209        0.14414256374435
C           73.20280266802025        1.19755379020836        0.09535745435709
C           73.85683548051013       -0.00980699631935       -0.22583620325703
C           73.22203313196668       -1.21968949575702       -0.56882005537662
C           73.85714328929902       -2.44537029966786       -0.89815494524286
C           72.88142272709929       -3.36031214547283       -1.18653628538941
C           71.62227951516802       -2.71769286203746       -1.04085860638740
C           70.36008163753746       -3.28147377072246       -1.25214771198183
C           70.34460632437278       -4.72487548855105       -1.64151678273853
C           70.15204071222492       -5.65985864527324       -0.60556138756823
O           69.96928257646418       -5.12387171775542        0.63132457371522
C           69.73859018033207       -5.96142984451775        1.74610956973128
C           70.16764009199592       -7.02709556144200       -0.85660978589953
C           70.38454397950029       -7.47483009193688       -2.15436734700300
C           70.56741273196128       -6.57722941419173       -3.18620848823351
C           70.54318048582397       -5.19816962788795       -2.94129878260186
O           70.75041741569092       -4.43243091251529       -4.04499276680511
C           70.36075447231994       -3.07405622692090       -4.13543070945997
C           69.13767829427798       -2.63680819044187       -1.07104800004838
C           67.85312127964677       -3.28038607641782       -1.27691489881841
C           66.91293849842337       -2.34757675106383       -1.01778051724663
C           67.62628338404438       -1.13695891060683       -0.66007508066069
N           68.95834576264882       -1.33755711023666       -0.70515496187273
N           71.87889990069546       -1.42596233704780       -0.66358069622774
C           70.49185393319203        4.78896652601655        1.06506879757212
C           70.08987557952550        5.78537913945155        0.16564898600663
O           69.69588015511175        5.35409065355407       -1.06214666915255
C           69.28614351482337        6.28123247034709       -2.04773809070479
C           70.11712737224882        7.12756772777769        0.54273824795664
C           70.53737055923698        7.46691442403953        1.81982724515612
C           70.93213508472554        6.49768727809477        2.72938159927394
C           70.91187564083832        5.15573639250704        2.35091632447992
O           71.26890875597468        4.13417351627091        3.17199903036483
C           71.73926268307801        4.39592286375966        4.47912607597481
H           65.90588932047513        2.62629460582004        0.44615342390367
H           67.81031287151683        4.43029708726550        0.97728486462386
H           69.66795867233763        0.79467762867129       -0.09559127802047
H           73.12279376299693        4.38739466530414        0.93636777401878
H           74.99284511326542        2.51263634988519        0.44614350167522
H           74.92431132317500       -2.59799448920659       -0.91028589649653
H           73.01488955976190       -4.39060444396103       -1.47379508128041
H           69.60852454397339       -5.29764304379377        2.60287762015247
H           70.59038623504553       -6.62681253774846        1.93237236868004
H           68.83074992832773       -6.56269012630298        1.61526237175569
H           70.02127448295683       -7.74235118724547       -0.05855790188525
H           70.40403222624360       -8.53998131640760       -2.35547216220028
H           70.73099138498132       -6.91441777651150       -4.20190096184355
H           70.39841990257656       -2.81953711117850       -5.19746806611447
H           69.34116238560098       -2.92423665456641       -3.76496367252026
H           71.04722322606764       -2.41899268954867       -3.58813520775929
H           67.71792692713751       -4.30832609027598       -1.57296130673451
H           65.83948216989376       -2.44257792835487       -1.05751145516828
H           71.16777843897998       -0.72813714329452       -0.47239419429260
H           70.09382496268330        6.97707290820106       -2.30467565402122
H           68.40667633825487        6.85025244151919       -1.72278921483965
H           69.02613333498462        5.69234493080810       -2.92927320876076
H           69.81504301314872        7.90503688050820       -0.14599618379806
H           70.55599903174378        8.51070058047460        2.11331109326849
H           71.25008665250405        6.79074438985489        3.72089488477668
H           72.64243934345792        5.01766920991926        4.46328932655431
H           71.97997971045507        3.42456436191580        4.91492452234126
H           70.97238854691383        4.88547239320868        5.09149461894416
C           85.59580118165964       -0.02957852605448       -0.28688007873933
C           86.22273028591496        1.18453734932379        0.05549503428677
C           85.57499514312889        2.39764718093545        0.40664062179635
C           86.54188196266347        3.32749336236141        0.67406395947458
C           87.80829726403786        2.70929125768974        0.48978761814559
N           87.56406791330414        1.41439959126265        0.11785124567755
C           89.06581329978573        3.29368269803200        0.67318323754241
C           90.29329400407848        2.65280060791381        0.51445162729511
C           91.57498490831267        3.31252177991208        0.68720516240419
C           92.52081508463552        2.38340257876101        0.44007379115031
N           90.48199203436346        1.35060609324384        0.16067770567844
C           91.81494387980669        1.15968516716640        0.11178568893893
C           92.47920146851246       -0.04062067395870       -0.21499059505787
C           91.85479080018878       -1.25442718338687       -0.56404563812456
C           92.50035624085824       -2.47134743054151       -0.90513454400768
C           91.53210922056931       -3.39459735937208       -1.19283361490699
C           90.26763761147386       -2.76614575832471       -1.03400692993427
C           89.00995233572979       -3.34329959066197       -1.23573401981755
C           89.00512494323777       -4.78945674152459       -1.61710423213751
C           88.89261075105684       -5.71648806319980       -0.56198153527697
O           88.77810449100292       -5.16878431853303        0.67817576040564
C           88.62778153946429       -5.99674947281839        1.81363289566046
C           88.91164344121006       -7.08588582365529       -0.79907999877595
C           89.05043400512294       -7.54429871358092       -2.10391983732730
C           89.15684740518228       -6.65528842280672       -3.15334280911486
C           89.13064895489708       -5.27338693661322       -2.92183186029945
O           89.25988274836010       -4.52281523891784       -4.04673530255438
C           88.93143370995951       -3.14768314255837       -4.11644432580532
C           87.78240628134145       -2.71259368092364       -1.04322938884053
C           86.50347594599332       -3.37270756455489       -1.22984330748840
C           85.55527476911897       -2.44900249976786       -0.96679075640955
C           86.25829221677660       -1.22781515587345       -0.62545994698504
N           87.59155713157728       -1.41296734536558       -0.68248838557208
N           90.51335841198866       -1.47358305869143       -0.65258944786803
C           89.07222878875723        4.73051717076164        1.07162463960286
C           88.66684220307724        5.71830526144291        0.16421599316939
O           88.28388785366171        5.27640365171706       -1.06326330464009
C           87.87838053503224        6.19448542803945       -2.05900045080076
C           88.67928214158157        7.06277461472460        0.53382704272339
C           89.08985634719421        7.41310914592666        1.81107833136127
C           89.48788478621370        6.45252991859043        2.72836291957547
C           89.48043493240867        5.10813388049697        2.35804495934400
O           89.83900113647752        4.09450815476613        3.18834616538228
C           90.29579632297686        4.36896320908794        4.49770622204540
H           84.50597257364690        2.53094482729042        0.44883689732399
H           86.39532895289841        4.35221625482948        0.97392154431055
H           88.28267227762072        0.72425999596097       -0.07294813506076
H           91.70778751991639        4.34744123264271        0.95797481887387
H           93.59371814465328        2.48897239112085        0.46594741105524
H           93.56891126312964       -2.61295238754190       -0.92556104421943
H           91.67384568966820       -4.42155866950648       -1.48807731243394
H           88.53615083154614       -5.32508749167781        2.66923817007373
H           89.50076673207323       -6.64511438758296        1.95694997965143
H           87.72471930205070       -6.61502255238923        1.74291224579000
H           88.82618181339339       -7.79429091937199        0.01375827834795
H           89.07066860963606       -8.61111830278925       -2.29585739863310
H           89.26099096850869       -7.00099342846078       -4.17401015868516
H           88.93937545961997       -2.89076352767854       -5.17848427163222
H           87.93508346516410       -2.95178634005884       -3.70630198542533
H           89.66902044848669       -2.52821058620846       -3.59476333309731
H           86.37728633387034       -4.40447414455473       -1.51641857283969
H           84.48266396374989       -2.55699110715321       -0.99348482857597
H           89.79679419029924       -0.78387140520912       -0.45252761812151
H           88.68331791247046        6.89558745378908       -2.31004945353070
H           86.99031892554910        6.75789114348484       -1.74796745718152
H           87.63399683455773        5.59841825987510       -2.94016597419092
H           88.37279810134635        7.83336728984118       -0.16068161503882
H           89.09790318628329        8.45864553517559        2.09875425522735
H           89.79818986750860        6.75436768705737        3.71966949897828
H           91.19514986641015        4.99630282832849        4.48540277153922
H           90.53854091013537        3.40254838451304        4.94320897507371
H           89.52034117048048        4.85828913536543        5.09943492195199
C          104.21802057038096       -0.03323131947907       -0.26134503808776
C          104.84503098093565        1.18045833758520        0.08159118199941
C          104.19830273145442        2.39546397767177        0.42832013799191
C          105.16594503586059        3.32360790545140        0.69854181988235
C          106.43193179405090        2.70206353049935        0.52160683269068
N          106.18659423934531        1.40762906447444        0.14923128404839
C          107.68955130183444        3.28237033412802        0.71537061489799
C          108.91635408300722        2.63735999044779        0.56814474077044
C          110.19833268704312        3.29223942391972        0.75761891558102
C          111.14363806909684        2.36030487571016        0.51999328043943
N          109.10427188282698        1.33584079299676        0.21295165903340
C          110.43736237388397        1.14003121319775        0.17913715725840
C          111.10067012061077       -0.05961221102100       -0.14962009377274
C          110.47673613839636       -1.26629772259692       -0.52112781701331
C          111.12180576013685       -2.47964112235101       -0.87663937260725
C          110.15334760232682       -3.39662516890255       -1.18260870191152
C          108.88905430508986       -2.76853714313101       -1.01950875706221
C          107.63151711707773       -3.34182564655344       -1.23166604105623
C          107.62320462780370       -4.78645743123548       -1.62043098431038
C          107.57886309176818       -5.71519304959371       -0.56125180822804
O          107.54040908099986       -5.16810870054456        0.68405509711568
C          107.45417972621416       -5.99677770010265        1.82567340223885
C          107.58189989598613       -7.08431049071998       -0.79936684729276
C          107.63486277506837       -7.54150170449968       -2.11101488268986
C          107.67769455412142       -6.65148525970363       -3.16369139478972
C          107.66927024410802       -5.26904421772042       -2.93074588432239
O          107.72861238387495       -4.52398518591598       -4.06428186269075
C          107.51912399354630       -3.12521881857754       -4.10686198092550
C          106.40415990858236       -2.71191182129414       -1.03458177155721
C          105.12493032875190       -3.37210724631767       -1.21958008894281
C          104.17712468729907       -2.45054092993469       -0.94791973794433
C          104.88054589775778       -1.23040192105784       -0.60361453382730
N          106.21371734165936       -1.41450829111987       -0.66566351971886
N          109.13523677762200       -1.48154397876036       -0.62049634567427
C          107.69647155331654        4.71924595403977        1.11379126840478
C          107.30950489026199        5.70772969706109        0.19918918953680
O          106.94502882755044        5.26545112125352       -1.03374405599302
C          106.56873196897170        6.18384801456483       -2.04057253375132
C          107.32030778019167        7.05233541344069        0.56817853350986
C          107.71080600596302        7.40174321967502        1.85201807530597
C          108.09097597826963        6.44040967075651        2.77607929906065
C          108.08535111337798        5.09580199872009        2.40635244494443
O          108.42793937373176        4.08122105809266        3.24220063801326
C          108.86007731024655        4.35418425104376        4.56025044433188
H          103.12937739047341        2.53109449840323        0.46547300407786
H          105.02060715853837        4.34916483454226        0.99620646069404
H          106.90445843298106        0.71565578696276       -0.03763943656409
H          110.33132627613861        4.32609843701298        1.03230656287291
H          112.21651040918925        2.46208240779979        0.55847755642560
H          112.19026597962876       -2.62249747978282       -0.89441204986513
H          110.29412595336998       -4.41924980669256       -1.49314512642267
H          107.41551853757392       -5.32575855752394        2.68581219553486
H          108.33164033261536       -6.64850517183277        1.91692918760595
H          106.54621651376955       -6.61163951851314        1.80748892557743
H          107.54739813808791       -7.79322705966686        0.01674801040868
H          107.64016056111251       -8.60809842483404       -2.30516843649912
H          107.71729050047270       -6.99630393193571       -4.18921386223548
H          107.51655695460575       -2.85588098709027       -5.16580020071033
H          106.55648917502046       -2.84906989550916       -3.66365655371470
H          108.32367041668034       -2.57944735915682       -3.60215995619218
H          104.99842898678291       -4.40265341435955       -1.51033248875232
H          103.10450939982601       -2.55929391923480       -0.97040082282962
H          108.41890870917770       -0.79358975111235       -0.41363010731086
H          107.38466525526215        6.87770705908470       -2.27573435215562
H          105.67858730933146        6.75522528054008       -1.75081569646322
H          106.33900359700978        5.58709247826649       -2.92521833119367
H          107.02765039407414        7.82352173091048       -0.13162256167475
H          107.71715170429954        8.44732813954242        2.13958237647596
H          108.38617510085764        6.74180484514682        3.77212719264937
H          109.76258249340835        4.97706132375358        4.56546917350011
H          109.08914968112256        3.38682896526331        5.01091958349800
H          108.07527848157545        4.84765589201412        5.14622577661043
