150
 energy: -232.209344677681 gnorm: 0.000542371586 xtb: 6.5.1 (b24c23e)
C           14.79554774375053       -0.38029853723368        0.08319276955768
C           15.40361443280571       -0.52565093733888        1.32382244971969
C           14.74907724685579       -0.73373250665480        2.56971611379273
C           15.70528445240496       -0.77960807933486        3.54567864139245
C           16.97593430802281       -0.61316786142060        2.92589806292588
N           16.74284061472721       -0.46210017742906        1.58786144494258
C           18.23213266608803       -0.57103939245525        3.54380721870820
C           18.26373451105930       -0.77360287649636        5.00987866919910
C           18.79822042670209        0.19870043167495        5.85718418823357
C           18.82127715291172        0.02115749990623        7.22843937013735
C           18.31296117462059       -1.14871215940652        7.81282934230343
N           18.38581512712856       -1.35968841193385        9.18685224367086
C           18.58671775257832       -0.18730034406401       10.03876916111949
C           17.48711577367192       -2.36345660665363        9.75873027871910
C           17.79241812545407       -2.13206517917991        6.95805270025232
C           17.76317839416216       -1.94117102904432        5.58853154071258
C           19.44074511016156       -0.35680710510664        2.87495109316979
C           20.74139238940058       -0.40901780719279        3.51676773266787
C           21.65559846192810       -0.19235949015484        2.54793515493461
N           19.58768715431765       -0.12002245049260        1.54193689149798
C           20.91267701159691       -0.01287466133987        1.31631626285841
C           21.54429099133048        0.21608443385172        0.07689313427107
C           20.90896093791475        0.37727732330213       -1.16949565959996
C           21.55596400710176        0.58068054476510       -2.41644384821484
C           20.59180338064784        0.66602166490739       -3.38307625556370
C           19.32492941044446        0.52343232130505       -2.75352741075657
N           19.56901010882263        0.34976159397548       -1.41636736345724
C           18.06695162555069        0.51059330836968       -3.36832898762283
C           18.03500258798024        0.75157407967420       -4.82753629487088
C           18.55888917085930        1.92467974714807       -5.37460096993667
C           18.53535538392451        2.15282195921969       -6.73816720019243
C           17.99781205332921        1.20267307820971       -7.61971652928821
N           17.93476404540630        1.45238461999502       -8.98783122752315
C           17.69628421955705        0.31044062269576       -9.87083940691307
C           18.87309360038865        2.43594926083221       -9.53071818081165
C           17.46476095587370        0.02827893210437       -7.06737546180801
C           17.48242796076126       -0.18669468981718       -5.70133523627273
C           16.85867723531834        0.28165889465969       -2.69925823966956
C           15.55051558057861        0.33138607390107       -3.33246426189928
C           14.64684499069139        0.07249819345515       -2.36529741483887
C           15.40051336289564       -0.12137308380786       -1.13978849714170
N           16.72830511766289        0.01544499116158       -1.37786663076833
H           13.71290251519049       -0.45986754399284        0.08254815555960
H           13.68136870835881       -0.82399728708431        2.69207263291183
H           15.54736978397442       -0.90366623508751        4.60479830055469
H           17.46827844792945       -0.30574689017375        0.89598153886635
H           19.18180292160709        1.12146930010663        5.43547536692544
H           19.24329998177921        0.80930779891185        7.83852344281081
H           17.81020812596450        0.56820836641859        9.87446170668019
H           18.56478246590749       -0.50134050647664       11.08180383750265
H           19.56595514224610        0.24778282103135        9.83696083913162
H           16.44339289350933       -2.16864793137776        9.48839692143552
H           17.77412864404789       -3.35510522587145        9.40718863726536
H           17.58401453478455       -2.34790085841642       10.84370261111264
H           17.41042283508910       -3.06479967679731        7.35274360011417
H           17.36668888446210       -2.72570460219193        4.95285239980709
H           20.91366592648768       -0.60876908834932        4.56197082386096
H           22.73019415577049       -0.16065017993452        2.63245583098300
H           22.62399088659559        0.64413079519162       -2.54938420528742
H           20.74461784675024        0.79847346657055       -4.44174229766960
H           18.84655930831554        0.20094700069818       -0.71947524166746
H           18.97025308034449        2.68344829328695       -4.71745957615056
H           18.93554829409004        3.08828032679864       -7.10754692549667
H           17.72078557592683        0.65345023296635      -10.90462935683500
H           18.45248911093390       -0.47066126214354       -9.73320090577239
H           16.70635166458245       -0.10257447077942       -9.67470782357714
H           18.62000950946951        3.42906526463284       -9.15825927382386
H           18.78345969229576        2.44851382186531      -10.61631735472508
H           19.90669828827571        2.19693984033612       -9.25812061894697
H           17.02954318357680       -0.73562079115193       -7.69868687716736
H           17.08327756883628       -1.11443123621194       -5.30577703917599
H           15.36955101145752        0.55487206779038       -4.37158921252238
H           13.57168570507500        0.02379392813473       -2.44147892881149
C           34.89603137288533       -0.33806274292650       -0.16900066469513
C           34.28813736208488       -0.18438228074198       -1.40875736876069
C           34.94276595318799       -0.08868447153216       -2.66817448078352
C           33.98618419864326        0.09460218178777       -3.62752967810306
C           32.71528763296225        0.10435606733200       -2.98643691771674
N           32.94860638505201       -0.06406555133261       -1.65051923041684
C           31.45830714943706        0.28290430149903       -3.57788519634704
C           31.42719711477952        0.42475919008201       -5.05111993046105
C           30.88808908507049        1.56354189856767       -5.65227527978408
C           30.86733000574122        1.70691898094058       -7.02760131045650
C           31.38272313008249        0.70614020066725       -7.86509133431455
N           31.31238284111896        0.81905590041374       -9.25075675223259
C           31.11593967589550        2.15795678603913       -9.80737318949092
C           32.20972551785388       -0.02675475749924      -10.03894336810396
C           31.90739006286852       -0.44543443697840       -7.25919172784648
C           31.93424241132345       -0.57540045251162       -5.88254028458873
C           30.24933916870347        0.33035243173480       -2.87794653576289
C           28.94841898861206        0.42273349708423       -3.51466139079122
C           28.03424409262748        0.40860876923108       -2.52191721706060
N           30.10261309607085        0.25391553922237       -1.52618693064051
C           28.77746172844396        0.30250346572881       -1.28198998681413
C           28.14629634621629        0.23865830445810       -0.02293672193501
C           28.78195329477466        0.10602913765415        1.22662577738150
C           28.13530702999925        0.01369871321196        2.48691735195299
C           29.09947242588821       -0.13286719568438        3.44613053079443
C           30.36610686363966       -0.12761429795191        2.80008383542261
N           30.12184232084386        0.01837216526190        1.45962981754154
C           31.62361693417998       -0.28895026984639        3.39417899848815
C           31.65576268248673       -0.40081299203630        4.86910288568505
C           31.14036221054264        0.61311406668337        5.67913275394201
C           31.16564029224149        0.51161334384980        7.05791454136010
C           31.69583200998911       -0.62433187517074        7.68850194177949
N           31.76009728128568       -0.70514132987030        9.07680492825182
C           31.99749211670724       -2.02303130120261        9.66555002238975
C           30.82322989273197        0.12409674293241        9.83701037233556
C           32.21959746171635       -1.63863673153644        6.87293310263898
C           32.20084421921391       -1.52353503090519        5.49485769999449
C           32.83175988440556       -0.35615134343295        2.69005885403253
C           34.13942960114390       -0.46170721558953        3.31742488047436
C           35.04349187770145       -0.48407124577447        2.31684273723367
C           34.29054607705098       -0.37857981916540        1.08012375037362
N           32.96267031620466       -0.30084498285576        1.34335101326340
H           35.97870144560572       -0.41507025070085       -0.18700845773025
H           36.01070842127082       -0.14343524650226       -2.80822052097228
H           34.14391404724954        0.22612666934238       -4.68577638326709
H           32.22308963574649       -0.07878058485057       -0.94144593287376
H           30.49900185268159        2.36214640336516       -5.02993282759450
H           30.44120837028618        2.61209988994647       -7.44061558430958
H           31.88678585599912        2.85534934417447       -9.46072807914460
H           31.15217284355679        2.09702279778729      -10.89456513733168
H           30.13224205925692        2.53205117176343       -9.52182849856659
H           33.25497441189071        0.10681478271124       -9.73871196896706
H           31.92784680243436       -1.07313621430459       -9.91723107757039
H           32.10454680819517        0.23148609911089      -11.09208055891497
H           32.29525212764419       -1.25996778498122       -7.85730983446929
H           32.33445868371255       -1.48331832238648       -5.44402577799400
H           28.77621886420086        0.46698746391054       -4.57790211990036
H           26.95949742370419        0.45545483577850       -2.59713221055155
H           27.06742557926746        0.04737831906399        2.63148954956546
H           28.94711762699141       -0.25202000203404        4.50644665721425
H           30.84393872395250        0.03500775208643        0.74686867994705
H           30.73487264120936        1.50896792633528        5.22104669191770
H           30.77302251570368        1.33598826322176        7.63932075598558
H           31.98261806957528       -1.93144846598477       10.75108551300379
H           31.23550899898090       -2.74671597574647        9.35513153455154
H           32.98321736053840       -2.38301904838892        9.36982624434341
H           31.08410525287738        1.17630401686073        9.71807477202095
H           30.90481044333471       -0.12768461576863       10.89368173809332
H           29.79030577265728       -0.03455782383378        9.50856118938873
H           32.64808344944714       -2.53402027130073        7.30446062083907
H           32.59334637189258       -2.33396124185481        4.89012499594441
H           34.31967196340725       -0.49296845362427        4.37997316100247
H           36.11851930739308       -0.55154615894525        2.37953884930739
C           24.17084030343302        0.29354943288475        0.04589122211167
C           22.94892760954552        0.26640655048829        0.06440630701560
C           25.51960996459429        0.29997504987850        0.02623762121411
C           26.74159183014424        0.28329960511046        0.00106417303863
