380
 energy: -569.740497861006 gnorm: 0.000708836842 xtb: 6.5.1 (b24c23e)
C           68.21307794849635       -0.15208987301529       -0.01734182492589
C           68.82622065351025       -1.39814316067161        0.00874273800908
C           68.18879832388929       -2.67102060346142        0.03207876378963
C           69.16294084226881       -3.62934344369923        0.05315320603956
C           70.42660456123427       -2.97223289563844        0.04534084659927
N           70.17271492657147       -1.63005090067557        0.01768087999083
C           71.68918268866855       -3.56872568559980        0.06540455749014
C           71.71713937036623       -5.06109772300857        0.08537114975860
C           71.74966055069414       -5.77200053902962       -1.11785462645856
C           71.76032134043469       -5.03173291200026       -2.42876458266311
C           71.77498852406328       -7.16139354650218       -1.09039111730828
C           71.76975253499819       -7.85267150978933        0.11674393395084
C           71.77784694278118       -9.35748964393738        0.13258239877994
C           71.73718524163466       -7.13512120719281        1.30793224383466
C           71.71134053041567       -5.74529455132437        1.30407962621691
C           71.68090982311610       -4.97602869568192        2.59790392815264
C           72.90833358319227       -2.89225995485058        0.06238777940518
C           74.19505327058792       -3.56380377041773        0.08902735053364
C           75.13219582433146       -2.59305285002564        0.06806057965631
N           73.08460840709827       -1.54269273094844        0.02806074454406
C           74.41652829832540       -1.33202011533380        0.02811295241734
C           75.06464236496396       -0.08215235765338       -0.03043814972841
C           74.42696413005147        1.17030129635721       -0.09112673267833
C           75.05752021429296        2.44269123916015       -0.13043823357995
C           74.07936418930295        3.39820717356930       -0.15100263486295
C           72.82026600736424        2.73654709363784       -0.12347656974029
N           73.08207356569379        1.39237640593261       -0.09159810834758
C           71.55869477418922        3.33477689891876       -0.12012827938321
C           71.53082888164974        4.82681804263899       -0.13970402419713
C           71.49180806435912        5.51065806850776       -1.35807776110041
C           71.47592279188618        4.74091696983657       -2.65183332619043
C           71.46845698573317        6.90048471876335       -1.36142438028857
C           71.48441630764795        7.61855281772109       -0.17015764982632
C           71.43910376792725        9.12269452540737       -0.18576251614309
C           71.52150815920126        6.92766316587580        1.03659467501269
C           71.54537573378926        5.53822564929634        1.06358453169917
C           71.58726237804319        4.79846308463289        2.37419866836656
C           70.33888388119048        2.65701653192237       -0.09213760508227
C           69.04554571600970        3.32253119139581       -0.09273387042506
C           68.11460027653175        2.34731418865130       -0.06604188391489
C           68.83902919393368        1.08803322490577       -0.04684837202357
N           70.17538074188259        1.31262193077329       -0.06311200229012
H           67.12799301139489       -0.15701543041713       -0.01437081312576
H           67.12067202528961       -2.81954015456422        0.03172538527256
H           69.03065385714649       -4.69923686448365        0.07317273863716
H           70.88534652892707       -0.90833264745101        0.00572212870419
H           70.86426537508271       -4.41535199800431       -2.52370439621873
H           71.79695896813540       -5.72610787721512       -3.26763630430823
H           72.62718494242669       -4.37058389894386       -2.48321395254947
H           71.80154840074557       -7.71282786787191       -2.02460240888324
H           70.75278579779324       -9.73491817188589        0.10994661250503
H           72.30326773411822       -9.75217564677674       -0.73741730812179
H           72.25788888813938       -9.73422415534207        1.03606147570585
H           71.73423550161299       -7.66587683171050        2.25441390041020
H           70.77716000078249       -4.36623172427686        2.65532176430465
H           71.70115685764377       -5.65120694154618        3.45285373046389
H           72.54010448977685       -4.30563853533249        2.66019852704988
H           74.33366311306590       -4.63271769597570        0.11865965865767
H           76.20571793587420       -2.69490222701937        0.07138548988190
H           76.12431242458024        2.59764598811716       -0.13621293558492
H           74.20856951066345        4.46808047829579       -0.18023676485142
H           72.37198532943395        0.66835354039140       -0.06222785476952
H           71.43583466322683        5.41608163929205       -3.50608930635109
H           72.37173018622863        4.12265628324312       -2.73625754935134
H           70.60896782078211        4.07861496695548       -2.68776130377393
H           71.43908249964166        7.43103569660381       -2.30756442459380
H           71.94646371142264        9.53573375122236        0.68642225242545
H           70.40116672669380        9.46333935866953       -0.16759949867015
H           71.90917460503223        9.51641634905630       -1.08726489850622
H           71.53361574973337        7.47945457758997        1.97089584611744
H           71.56471002780894        5.49251074704614        3.21383621395082
H           70.73429156215224        4.12221409713002        2.45522371349428
H           72.49658190769770        4.19799917363941        2.44160718360017
H           68.90237577048224        4.39127551803974       -0.11199806870618
H           67.03964391588562        2.43866827866081       -0.05826816210171
C          118.94387204839757        0.10409860719915       -0.05874886491700
C          118.32585711420610        1.33377580034572       -0.24632088900734
C          118.95812512999969        2.59668354143299       -0.42628418970841
C          117.98012336359753        3.54030532184642       -0.57067904112221
C          116.71912508455058        2.88351982430554       -0.48524398057558
N          116.97846527604707        1.55634062303482       -0.29028815136412
C          115.45422640959463        3.46774593624922       -0.58006080820306
C          115.42036913969133        4.94643898114387       -0.78213857997310
C          115.41577734571399        5.47585832651580       -2.07558603050038
C          115.44266915018079        4.55361647595670       -3.26528865719698
C          115.38324778226153        6.85463859837415       -2.24995233638727
C          115.35407158836415        7.71285345338789       -1.15580205463480
C          115.33743702368170        9.20444878659169       -1.35501340623733
C          115.35993703591244        7.17498661354166        0.12718665978461
C          115.39234337136452        5.79967424840115        0.32490498223840
C          115.39396400303231        5.22606564375398        1.71688041453094
C          114.23760028740743        2.79176964121294       -0.49678397008346
C          112.94852836586534        3.45084361245505       -0.60207873690942
C          112.01489459080554        2.48556614982957       -0.46929725494619
N          114.06605764480230        1.45472104578280       -0.30507374261054
C          112.73491530847856        1.24031248710160       -0.28300650197963
C          112.09097377570974        0.00286259606321       -0.08269847319095
C          112.73372843414623       -1.23056438155338        0.12933958253857
C          112.10876134092638       -2.49220196610615        0.31796535890149
C          113.09092528130165       -3.43219988268121        0.46609799192776
C          114.34718334863074       -2.77162830081846        0.37000131857106
N          114.07962024900449       -1.44340895968593        0.16851975338525
C          115.61120042952901       -3.35827440103633        0.45752609928892
C          115.64465128534930       -4.83452348521711        0.67429400823434
C          115.66234204650563       -5.69985299209949       -0.42354471150525
C          115.65041004343142       -5.14131200387841       -1.82160343375991
C          115.69043133291305       -7.07305054729584       -0.21108025313828
C          115.70017372501790       -7.59700467083865        1.07764507365299
C          115.74991002720270       -9.08555754073517        1.29324416682917
C          115.68445758792703       -6.72678887719601        2.16252501300745
C          115.65630885907058       -5.34988172811826        1.97342208069857
C          115.63746355643464       -4.41492376635370        3.15329254205557
C          116.82853359839628       -2.68312970383901        0.35628936556261
C          118.12438748631735       -3.33602424405736        0.45680185887430
C          119.05171811233407       -2.36759389816350        0.31318015470419
C          118.32257229806926       -1.12520159102855        0.12410322619384
N          116.98703145429992       -1.35284627140580        0.15573410525901
H          120.02891526297273        0.11399374330250       -0.05431153282988
H          120.02561768523391        2.74906512410346       -0.44030793496661
H          118.10802538099290        4.59988825988942       -0.72399659671946
H          116.26895981322939        0.83842467173186       -0.19004106554436
H          116.34654818030322        3.94151362818905       -3.25015410994618
H          115.41934248144004        5.11868465887356       -4.19661254009997
H          114.58363897207195        3.88051468087883       -3.24210233381734
H          115.37810377773322        7.26501062727884       -3.25449383242172
H          116.35906832132878        9.59165955340308       -1.34998402479166
H          114.88061577163487        9.46441296910473       -2.31014015650075
H          114.78532212104211        9.69661026950688       -0.55387174348832
H          115.33643867400899        7.83699705571248        0.98668570084145
H          116.29553014214108        4.63282715535770        1.88157729126587
H          115.35590424348426        6.01800881895950        2.46426554833221
H          114.53283696744211        4.57012413087284        1.85725418585731
H          112.80598895478553        4.50869859934473       -0.75469409308564
H          110.94106254867660        2.58258005607035       -0.48447880346549
H          111.04276000666857       -2.65168828255170        0.33194518809615
H          112.96615112692970       -4.49104925783022        0.62556645642893
H          114.78658593430785       -0.72423731021515        0.05761606958667
H          115.68222027033372       -5.94132070703552       -2.56065402377466
H          114.74795925955469       -4.54928256254149       -1.98579464265723
H          116.51083228848610       -4.48751848049307       -1.97568912113265
H          115.70318452807648       -7.74452647623758       -1.06343153987043
H          115.29735149430532       -9.35585177770284        2.24754315335315
H          116.78821183700673       -9.42545449328887        1.30084100805970
H          115.22782033496500       -9.61116760413920        0.49322593551238
H          115.69256890150034       -7.12624225450847        3.17143240523403
H          115.67671018187787       -4.96967861537069        4.09025794254905
H          116.49077414439924       -3.73550412180223        3.11207617250407
H          114.72863745929044       -3.81004793592329        3.14302683382905
H          118.27153355916100       -4.39240267893338        0.61649238371888
H          120.12704686420922       -2.45337857225984        0.32862905260574
C           76.47370712290176       -0.07138049817939       -0.02771358671864
C           77.69050683949050       -0.05796222365673       -0.02459127573701
C           87.45240103972519       -0.04273136388605       -0.02551492327232
C           88.67138272970141       -0.04516382951479       -0.03249144008760
C           98.47044592585763       -0.07064406231508       -0.08115316938186
C           99.68995962670954       -0.07708549030310       -0.08739971808065
C          109.46521809506288       -0.03481480380244       -0.09429143438604
C          110.68204964236391       -0.01485735967268       -0.08914826841432
C           79.09865252707338       -0.05324297640765       -0.01980518973230
C           79.73278736938711       -1.08258607204586        0.70021932244038
C           79.10542324498267       -2.11066508124293        1.45088820855013
C           80.08762234192517       -2.88302867669847        2.00886205486801
C           81.34372293175323       -2.34774600542705        1.61281545522263
N           81.07865580380304       -1.26100335343920        0.82388605960621
C           82.60641871835749       -2.84116343257907        1.95314445464392
C           82.62090189568195       -4.04479711208302        2.83706523586342
C           82.57474503856514       -5.32620388864539        2.28086559047208
C           82.51642162506040       -5.49568697209132        0.78605643235930
C           82.58498411556246       -6.43543213408693        3.11855574003298
C           82.63839097415475       -6.28722675749409        4.50070833103671
C           82.66758366219808       -7.49636438737082        5.39616876822152
C           82.68569288173339       -5.00729769855650        5.04312402952539
C           82.67744139200337       -3.88396667720660        4.22460833378600
C           82.72826042456846       -2.50241887497779        4.82068348862456
C           83.83380500094609       -2.31773995008277        1.55380906411057
C           85.10585751519524       -2.91562180281973        1.91505916599171
C           86.06129112382311       -2.14303627649321        1.35760705095142
N           84.03831105470348       -1.20595593930091        0.79279722973299
C           85.37393211790781       -1.07097348048096        0.66671264239913
C           86.04564389623148       -0.03903281613292       -0.02308692501843
C           85.40601781247426        1.00763828738499       -0.71733183032173
C           86.02765464587529        2.07789161037258       -1.41002100249421
C           85.04416836348342        2.85387909541094       -1.96007341669265
C           83.79040038559722        2.28239677409572       -1.61172010041762
N           84.05955593820671        1.17217870453362       -0.85614233233076
C           82.52917589807490        2.76172087100185       -1.97715899873445
C           82.51951247048206        3.96978092963229       -2.85504089069466
C           82.54983347538203        3.81657226129930       -4.24431995846090
C           82.58746364153276        2.43830223223943       -4.84892349120301
C           82.54247801131615        4.94436829020075       -5.05655691284654
C           82.50471230937993        6.22136124161862       -4.50627047856614
C           82.51782540068419        7.43466539847869       -5.39647757049924
C           82.47496767043768        6.36189871280794       -3.12269913477308
C           82.48130533031160        5.24799411381462       -2.29109245972890
C           82.44632211015954        5.40866566545243       -0.79462235309768
C           81.29991068103085        2.21943404942513       -1.60953897252560
C           80.02537279087613        2.77692387612018       -2.02527057763681
C           79.07046537933198        1.99840667329685       -1.47454704862116
C           79.76335381412119        0.96808721763786       -0.72631760992204
N           81.09914538149837        1.12486103922589       -0.82540246056306
H           78.03923130076807       -2.23344990710530        1.55140157116169
H           79.96121890024918       -3.74710776058346        2.64089407544366
H           81.78089304599376       -0.66638057149252        0.39671011522106
H           81.61389427135137       -5.02913116501326        0.38640853963967
H           83.37654799529120       -5.01488668092259        0.31650615550926
H           82.51328573053758       -6.55073802266636        0.51393473193259
H           82.54900357531901       -7.43018695997820        2.68649884316662
H           82.23600785820904       -7.26856146747304        6.37110207882893
H           82.11514428893062       -8.32366145846203        4.94988901084115
H           83.69960548186351       -7.82082823412719        5.54889316498108
H           82.72788362094721       -4.88171944551493        6.12014593196754
H           81.84781018090305       -1.92869543937213        4.52500732283979
H           82.76564195044146       -2.54917916782920        5.90862840654069
H           83.61026600196664       -1.96799900421331        4.46284477045053
H           85.22349162344632       -3.80817506182335        2.50835371498952
H           87.13057321944289       -2.27063416084564        1.39201663215884
H           87.09164805843793        2.23311680373015       -1.47227308989282
H           85.16839733382018        3.74609220324325       -2.55209257837143
H           83.35969708457492        0.55608295037482       -0.45623720764024
H           82.58065780209374        2.49051938430047       -5.93723541889775
H           81.72426756010157        1.85652820283366       -4.52047257833064
H           83.48750596774050        1.90891667276061       -4.53016355209044
H           82.56467605459059        4.82488200499820       -6.13486444225091
H           82.04013120531346        7.21985226964524       -6.35272528225938
H           83.54822444012576        7.74021896327187       -5.59301651016292
H           82.00104001841191        8.26985778518766       -4.92316739491268
H           82.44451872091547        7.35416244876872       -2.68453470954983
H           83.33599183384551        4.96373258061875       -0.34475018066882
H           82.40409350413327        6.46145702932103       -0.51707901082910
H           81.57339342403755        4.90151703009678       -0.37952214764156
H           79.90611693877550        3.64519292614472       -2.65335338205076
H           77.99896079971042        2.08791939203065       -1.55671985051831
C           90.07769384284386       -0.05209971405707       -0.03786380300024
C           90.72206176363071       -0.93021232255935        0.85675915846917
C           90.11030659968523       -1.79887166489441        1.79572327164140
C           91.09975100424100       -2.49932730301294        2.43056362707095
C           92.34691671864853       -2.07314086628758        1.89901722908384
N           92.06879406092258       -1.11705693841769        0.95919091346972
C           93.60934680979858       -2.56000787481638        2.25081819081410
C           93.62278165142212       -3.65562999580655        3.26585021928649
C           93.48856836547152       -4.98606410741541        2.85827600548663
C           93.33548052799910       -5.31358028489358        1.39674927270223
C           93.49942940840276       -5.99712899155822        3.81185328045349
C           93.63961321025998       -5.70281935382644        5.16430386214433
C           93.66879641234041       -6.80896692608831        6.18423502900958
C           93.77336314416503       -4.37564518914144        5.55825428722660
C           93.76636017155623       -3.34832048978849        4.62184239326073
C           93.91035645962899       -1.91434058824809        5.05703222913403
C           94.83670411331647       -2.12807198309251        1.75453457173681
C           96.10254013726608       -2.71426284666392        2.15475194217354
C           97.06333312283898       -2.02366875192273        1.50634631087706
N           95.05015273883312       -1.11080294901367        0.87339986272124
C           96.38622530793886       -1.01646590667170        0.71626663920473
C           97.06364758035592       -0.06461021596716       -0.07629326045640
C           96.41812144404446        0.90360575880145       -0.87264403925920
C           97.02918675424534        1.90204221430165       -1.67246958199282
C           96.03927191653850        2.59739250958218       -2.31180794207611
C           94.79156385728082        2.04413774121925       -1.91626472114347
N           95.07045036500401        1.03114153472406       -1.03800016047296
C           93.52902406716008        2.44268568242545       -2.36547172215353
C           93.51659523787552        3.53891938087092       -3.37977893914345
C           93.64181388873773        3.23378470644263       -4.73811883458858
C           93.78547533225303        1.80095971887136       -5.17756704709206
C           93.62836633515927        4.26193883727895       -5.67345568567450
C           93.49226221394709        5.58794779730121       -5.27610065428578
C           93.49952844709368        6.69435348680079       -6.29614626821001
C           93.36923630091083        5.87996203633961       -3.92158979107110
C           93.37892687353764        4.86794520059894       -2.96890353260317
C           93.24166537321503        5.19252316031671       -1.50526538565227
C           92.30044000502423        1.92306712372943       -1.96572025003871
C           91.03326573414849        2.37279813451071       -2.51229396856486
C           90.07272002071386        1.67737764671448       -1.86839034850045
C           90.75237890260092        0.81011758530539       -0.92819281660432
N           92.08854738603964        0.96754171035840       -1.01823789413453
H           89.04904453745431       -1.87128316052649        1.96444688096043
H           90.98303533818999       -3.24388027823836        3.20124843942758
H           92.76216213380593       -0.61821444400000        0.41167568252147
H           92.41740594923866       -4.87219278318571        1.00382746375810
H           94.17228505689883       -4.90577040471645        0.82685527386175
H           93.29767617683329       -6.39136565980433        1.24140190956631
H           93.39545687001581       -7.02985567891700        3.49533925199634
H           93.32737586855642       -6.45150455972784        7.15591874652133
H           93.03727175130584       -7.64123533663017        5.87213913109860
H           94.68924833622513       -7.18219576409405        6.29839657699459
H           93.88310976068742       -4.13646629786441        6.61098430731724
H           93.04716861023934       -1.33041635185889        4.73204113815601
H           93.99285464378210       -1.84300975948794        6.14113532530077
H           94.80121768938072       -1.47063549958960        4.60855693240300
H           96.21308875025791       -3.54269775378271        2.83584899694280
H           98.13017923621615       -2.16803373088918        1.54035701603827
H           98.09078134141633        2.06679687390260       -1.74396163510156
H           96.15611418814660        3.42219362301084       -2.99588809961091
H           94.37709872200566        0.45096031576461       -0.57746343740690
H           93.81373888832785        1.72828913976682       -6.26434911120603
H           92.94950937642744        1.20479260610631       -4.80733753120866
H           94.70537699424057        1.37188523444954       -4.77538619536655
H           93.72323071425262        4.02445266875880       -6.72801311836378
H           93.11553618305342        6.34258664156565       -7.25397158677902
H           94.52064600429964        7.05125336201087       -6.44987125030510
H           92.89356988510856        7.53622598540763       -5.96027080987587
H           93.26205602218832        6.91155791301735       -3.60248434874268
H           94.10460498103357        4.81881498259802       -0.95089982110085
H           93.16565945678076        6.26840418274683       -1.35069607116383
H           92.34945320002950        4.71637280695106       -1.09428222865729
H           90.92186648730686        3.11554500928896       -3.28582969095617
H           89.00505207921965        1.72406441631673       -2.00584818778446
C          101.09704175886043       -0.08217022973463       -0.09310494298166
C          101.74322324020874       -0.97520859365884        0.78599834879224
C          101.12985660880791       -1.87089620831345        1.69829795428271
C          102.11809030067326       -2.57243118877655        2.33303489576382
C          103.36753134002448       -2.12070590716399        1.82858966454240
N          103.09071192529227       -1.15198941054606        0.90061049042775
C          104.63043227706848       -2.58613907303404        2.20635435943277
C          104.64486624987573       -3.68071181140854        3.22239499084007
C          104.59032980095354       -5.01527325895738        2.80962330635943
C          104.52135760075640       -5.34659170444200        1.34260992828901
C          104.60084571003947       -6.02644695683238        3.76293715587596
C          104.66355507593161       -5.72856361927569        5.12054311740508
C          104.69317756817675       -6.83486265998368        6.14030641547493
C          104.71941127396556       -4.39752568491062        5.51964445568967
C          104.71050111568709       -3.36980807736162        4.58346605193791
C          104.77015082396505       -1.93177360911260        5.02498823062213
C          105.85836762976272       -2.12692740671635        1.73580855770304
C          107.13322671923557       -2.65823025696389        2.18368726241376
C          108.08764184023093       -1.95219558613154        1.54196580788187
N          106.05854310227113       -1.12615279556083        0.83489323433564
C          107.39426796896984       -0.99503266612818        0.70277450297137
C          108.05731800909673       -0.04750033770392       -0.10155169831933
C          107.41808342862430        0.90125527146496       -0.92117252962753
C          108.03908572160201        1.86064897755274       -1.76229668160579
C          107.05239134733843        2.55316004073699       -2.41002662044563
C          105.79982258519996        2.03287735114266       -1.98377410509671
N          106.07136350606814        1.04128438608513       -1.08024071321097
C          104.53567346984011        2.43820197076671       -2.42118247439499
C          104.51724198448143        3.53024791614193       -3.43977562516741
C          104.60235509064867        3.21856072602362       -4.79967089990667
C          104.70643617046117        1.78173488371436       -5.23722932148441
C          104.58432332585856        4.24377952636474       -5.73822210377798
C          104.48251431232582        5.57332896832710       -5.34254253194800
C          104.48405366204288        6.67654685580165       -6.36607662642810
C          104.39857039607202        5.87186444283468       -3.98643382151348
C          104.41388381102240        4.86292823351844       -3.03060142866998
C          104.31762904167813        5.19473403144252       -1.56530025177860
C          103.31001536629299        1.92419809917775       -2.00458291659398
C          102.03902725673628        2.38365093056226       -2.53319872570365
C          101.08358115600863        1.68115436573394       -1.88986431327048
C          101.76902019705263        0.79822862226342       -0.96882542007788
N          103.10462459602515        0.95784880018860       -1.06590970808874
H          100.06761078928365       -1.96105243657646        1.84925277263006
H          101.99949645011236       -3.33457654622549        3.08602025877337
H          103.78548373512747       -0.63591500615459        0.37115956698644
H          103.61404385503586       -4.92880047204323        0.90191630953155
H          105.37601953210681       -4.91740600827593        0.81651456523225
H          104.51988198802928       -6.42500048890189        1.18690933268623
H          104.55791397872325       -7.06225471865911        3.44232166017910
H          104.32014486480000       -6.48674151975706        7.10367696197026
H          104.08836368754540       -7.68075858628559        5.81212461623590
H          105.71863766976362       -7.18547894682785        6.27858633040646
H          104.76906997573842       -4.15527253613987        6.57621556738466
H          103.88368796526839       -1.39321537210682        4.68446739485434
H          104.82658578586415       -1.86020626911245        6.11074580710099
H          105.64486932135661       -1.43979862735307        4.59565017803692
H          107.25318506599201       -3.45991304519236        2.89468853840761
H          109.15920166880903       -2.04646539352581        1.61706834764752
H          109.10434010217340        1.99353637694341       -1.85947516168509
H          107.17357664018647        3.35256845792112       -3.12298983201836
H          105.37407208289909        0.48081465075925       -0.60178390221927
H          104.73386558800617        1.70695100355601       -6.32393007285738
H          103.85271465711138        1.21056895682818       -4.86776366647370
H          105.61266934764608        1.32659820184856       -4.83282690892654
H          104.64834106197428        4.00114525399391       -6.79393152078637
H          104.08263869330585        6.32545880359038       -7.31695934432360
H          105.50572648597951        7.02436997502272       -6.53603664972784
H          103.89046202472251        7.52458309888171       -6.02358848627466
H          104.31767166526635        6.90625258197127       -3.66860480631216
H          105.19378559226899        4.81996392569065       -1.03274927742594
H          104.25048547275428        6.27164064157254       -1.41378339120465
H          103.43495664858510        4.72424682102247       -1.12805887322882
H          101.92172784251234        3.13780598288370       -3.29470985638823
H          100.01521961193060        1.73360239252621       -2.01620811640890
