185
 energy: -327.235738603695 gnorm: 0.000945319116 xtb: 6.5.1 (b24c23e)
Zn          31.17635855430875        0.03072378095632        0.01653025363615
C           27.76807782666415        0.05419599223090        0.11041744027115
C           28.40106070343178        1.27299319501596        0.32224563837882
C           27.73016924631730        2.52348327211811        0.54339487729929
C           28.69144973344190        3.46684539671456        0.70334496430222
C           29.96277232872128        2.80105442387885        0.59345237800250
N           29.75115964973747        1.47528925426975        0.35325586524635
C           31.21618906569875        3.41829632992270        0.69088338383331
C           31.23297815000593        4.87387011952953        0.97624127414681
C           30.69123268505132        5.37000051913343        2.16440325590796
C           30.70529586235265        6.72677051411202        2.43366292465564
C           31.25983091185161        7.61873693168130        1.51084062146676
C           31.27188549355929        9.01601934983618        1.78196616481659
N           31.28073861790814       10.14612097539253        1.99983980913440
C           31.80196504551331        7.12789342253539        0.31926226695683
C           31.78947672324500        5.76924716031507        0.05970424154238
C           32.45374089075004        2.78194557946256        0.54379049799390
C           33.73546094866000        3.41186146053650        0.70318879661061
C           34.67849521299298        2.45759638164893        0.49698206916221
N           32.64274771070204        1.45638689367326        0.25747801476756
C           33.98388013742981        1.23514560982112        0.21779766664298
C           34.61101177044094        0.00325236808371       -0.05869829244490
C           33.95296752536592       -1.21664061494287       -0.31496315949184
C           34.61500908321356       -2.44751598128873       -0.63323964332974
C           33.64858620133049       -3.38504860252667       -0.80537101865624
C           32.38535903098720       -2.73700659858641       -0.58271087934971
N           32.60796526840695       -1.41646869695206       -0.29726860661199
C           31.13250004853204       -3.35437290002718       -0.67022875256707
C           31.11215646905509       -4.80805876400784       -0.96429928302979
C           30.49549948214193       -5.28876535875863       -2.12198090757105
C           30.47493784482382       -6.64373206063853       -2.39992336133234
C           31.06988156751317       -7.54947696042909       -1.51657514455792
C           31.04832433761417       -8.94473931220476       -1.79718836640771
N           31.03089680366476      -10.07289280736655       -2.02342911067972
C           31.68604888320097       -7.07430122792105       -0.35497583002540
C           31.70729037680379       -5.71747158708524       -0.08661567362923
C           29.89502222150072       -2.72010747508339       -0.50205500718025
C           28.61058357953716       -3.36850874668577       -0.54159836446393
C           27.67274692992875       -2.41323489844839       -0.32373242549890
C           28.37180177736231       -1.17247526295603       -0.13801508761617
N           29.71519075393248       -1.39264300736724       -0.24614070083559
H           26.68294189522715        0.06131498885314        0.14155550824255
H           26.65940739909317        2.65274735965242        0.56311421582706
H           28.55607860454112        4.52354123340270        0.86976244392032
H           30.27118518932206        4.68048992915586        2.88804929549030
H           30.28831460157130        7.10316268831808        3.36046585213751
H           32.22978541472545        7.81661694365107       -0.39987313574163
H           32.19991878913626        5.39374476059576       -0.87091519777480
H           33.89244395237044        4.44843664772849        0.95447357023349
H           35.75094188106625        2.56344972293390        0.53530186526498
H           35.68294128354831       -2.56919131014090       -0.72044183429039
H           33.77778934490459       -4.42153212241092       -1.07240391030216
H           30.04381921518754       -4.58875391938907       -2.81587745335527
H           29.99933055864386       -7.00797853748908       -3.30303874879872
H           32.14474001415648       -7.77378230136339        0.33408593389998
H           32.17515483442962       -5.35420425142254        0.82148028949647
H           28.45161569806847       -4.42269578778297       -0.70294105903242
H           26.60099221711179       -2.52836924582202       -0.28233172790956
Zn          63.27784832365974        0.00214347647875        0.03695280771320
C           66.68689626436948       -0.02600497486775        0.09926859783279
C           66.05327397335782       -1.23042552957085        0.37999826231604
C           66.72340052533065       -2.46948675398193        0.66009801887714
C           65.76155120211553       -3.40111055038857        0.87559218479440
C           64.49069270675396       -2.73896917047140        0.74066091455993
N           64.70305385926508       -1.42764859961728        0.43182444339886
C           63.23698287969589       -3.34837745674677        0.87559232373790
C           63.21991224391716       -4.78761443889706        1.23456523887747
C           63.76539438471713       -5.22264911253172        2.44476849556459
C           63.75008665989350       -6.56364428916961        2.78397828370546
C           63.19050626114854       -7.50107016261702        1.91059156731093
C           63.17512304943570       -8.88217909180553        2.25449100560185
N           63.16525616957911       -9.99869008723859        2.53291800348104
C           62.64544743094636       -7.07159180122106        0.69684295997683
C           62.65924605997187       -5.72821999033013        0.36723376809358
C           61.99951256591085       -2.71823490515635        0.70302651388805
C           60.71769289976652       -3.33834208125675        0.89716066584364
C           59.77487475689892       -2.39352562357692        0.65084959569760
N           61.81083556800263       -1.40736423516767        0.35586344844820
C           60.46962996441617       -1.18604567423584        0.31262458543062
C           59.84295490587957        0.03450866704683       -0.00950206356672
C           60.50066178360443        1.24128983872684       -0.32081553093025
C           59.83797429519125        2.45833719748252       -0.68765730657673
C           60.80470147900754        3.38293022133754       -0.91767064670960
C           62.06901034589774        2.74159270589512       -0.68166038759741
N           61.84645227277304        1.43739517444013       -0.32939171622336
C           63.32259566342692        3.34827999831446       -0.81924307276119
C           63.34438381081954        4.78285931264086       -1.19554808427212
C           63.94631591803727        5.19188590250066       -2.38807706085538
C           63.96841943895298        6.52799811499956       -2.74537343254274
C           63.38987604776391        7.48689066723653       -1.90830949650292
C           63.41482102664935        8.86335725959681       -2.26988092747292
N           63.43385695261799        9.97489419234264       -2.56721184467963
C           62.78837636129409        7.08359967079078       -0.71242823708261
C           62.76552901789180        5.74494681637317       -0.36449568791837
C           64.56015188536162        2.71896450443070       -0.63411118494625
C           65.84578313607703        3.36017907656177       -0.72287313573809
C           66.78356235741059        2.41477904684744       -0.46542202362749
C           66.08346553132327        1.18771891222655       -0.20674547127338
N           64.73948352581623        1.40619611507067       -0.31096139880825
H           67.77227072195426       -0.03449656991409        0.12000841669535
H           67.79401738148032       -2.60011941801155        0.67837474933041
H           65.89610173016409       -4.44814823385470        1.09521543320964
H           64.18925516662239       -4.49736573526780        3.13021999595417
H           64.16972117780846       -6.89228400487009        3.72760851287309
H           62.21409580005781       -7.79587918083705        0.01577242499863
H           62.24630682834711       -5.40065759451922       -0.58022996657987
H           60.56065246304866       -4.36189495733307        1.19709285451136
H           58.70247265311509       -2.49583175219568        0.69906619547310
H           58.76933150145166        2.57962529196279       -0.76625727978765
H           60.67477113848118        4.40593062935526       -1.23210797848059
H           64.38510044935896        4.45001160062337       -3.04583736556553
H           64.43233037149646        6.83635051037929       -3.67501877215277
H           62.34235149970338        7.82448638074322       -0.05924107579918
H           62.30937722933628        5.43805674166725        0.56996737571424
H           66.00546127923448        4.40393633968401       -0.94129965983336
H           67.85603036026875        2.52844050816271       -0.44230016328472
C           39.81277149954842       -0.00886621420697       -0.09079984979713
C           38.58425631089288       -0.01080220622489       -0.08867139034175
C           37.24011752139415       -0.01111216569446       -0.08587133696384
C           36.01604023011839       -0.00807185859341       -0.07780403119332
C           41.15677069804637       -0.00372589686668       -0.08453242608390
C           42.38098506660296        0.00297755940477       -0.07817230203540
C           55.86852945470413        0.05585746362791       -0.02628702308463
C           54.64027716655164        0.05473566915730       -0.02644322197786
C           53.29566887215950        0.05062141658705       -0.02430692145145
C           52.07169397052887        0.04429151824359       -0.02290402404550
C           57.21326754545854        0.05296460479902       -0.02523308656907
C           58.43708856711415        0.04780958799298       -0.02061929747698
Zn          47.22612279799790        0.02155674968950       -0.04355050805967
C           43.78558184159264        0.00909472407181       -0.06861914668081
C           44.43728931904294       -1.16114375469423       -0.50818557231473
C           43.76731788160757       -2.35490810907673       -0.93156980304387
C           44.72920577940202       -3.24616869782738       -1.28333982610011
C           45.99662742485170       -2.60003535240273       -1.08576149929036
N           45.78234844940555       -1.33651763503134       -0.60427957210951
C           47.24696836072830       -3.18158601354340       -1.32366815104343
C           47.25491749848254       -4.55636762237030       -1.88179705542997
C           46.69420660163684       -4.81347228383188       -3.13507688710212
C           46.70271704139923       -6.09215278669814       -3.66261027061975
C           47.27033038280327       -7.14496324991400       -2.93871583520388
C           47.27782855328658       -8.46258197068660       -3.47727634763804
N           47.28775163525924       -9.52788669012249       -3.91241950891079
C           47.82962109730710       -6.89388420139659       -1.68221338361276
C           47.82288410623040       -5.61129641911539       -1.16385382989332
C           48.48982837592280       -2.58377402085152       -1.08692759328867
C           49.76545231312113       -3.17414839196346       -1.38236308626280
C           50.71558387026668       -2.27528738102434       -1.01844156287927
N           48.68761653468460       -1.33425907704011       -0.56371263911797
C           50.03025752900471       -1.12533661995605       -0.50711255033534
C           50.66635826116904        0.03647565694546       -0.02526074614547
C           50.01494275479256        1.19102947353078        0.45343909974863
C           50.68471415091201        2.34469853561287        0.97672603944663
C           49.72296574250295        3.23419220318032        1.33309390000007
C           48.45577827258114        2.63484732436669        1.01973831249776
N           48.67001336011413        1.38844322503092        0.49563022075526
C           47.20533655913080        3.22360530591958        1.23928796423764
C           47.19592755493942        4.59858038491033        1.79665224484797
C           46.61061439618195        4.85452652953703        3.03890070314782
C           46.60332267301144        6.13385675338894        3.56495722996441
C           47.17981834196107        7.18848809103422        2.85076395351246
C           47.17241417478809        8.50667796993911        3.38791083413854
N           47.16664282522858        9.57221109093341        3.82255518457449
C           47.76379525322163        6.93859379843102        1.60532585542386
C           47.77240612905234        5.65551000663933        1.08836762873432
C           45.96269630747603        2.63359364309956        0.98204199071523
C           44.68793943356717        3.27116458879894        1.15942967465997
C           43.73770849295087        2.37328418572756        0.79303151876845
C           44.42224946682959        1.18401597607840        0.38047212482599
N           45.76447742379318        1.36863211808291        0.49746003745654
H           42.69756909892400       -2.48957233094787       -0.94828705778865
H           44.59355689370251       -4.25672353184666       -1.63347557852233
H           46.26337405462391       -3.99739345161088       -3.70419374056717
H           46.27124410173535       -6.28241705291193       -4.63837243762365
H           48.26667455113511       -7.70837604550726       -1.11646617948950
H           48.24725781013127       -5.42261068523229       -0.18416779052544
H           49.91419461148526       -4.14642742554719       -1.82367958564533
H           51.78686988549097       -2.37256406457990       -1.09368876720578
H           51.75420549883687        2.45014988387525        1.06532170534131
H           49.85861414619936        4.20556412869383        1.78055681584350
H           46.17316298185216        4.03711203626155        3.60102307378999
H           46.15275650283335        6.32318086171121        4.53225007524182
H           48.20805546903154        7.75436647276392        1.04710365051792
H           48.21584160695276        5.46783870168919        0.11697584420548
H           44.53994069356296        4.28100119026255        1.50664985529581
H           42.66694161854944        2.50072801295551        0.79277851665717
