262
 energy: -444.861417852619 gnorm: 0.000992674717 xtb: 6.5.1 (b24c23e)
Zn          39.77250709491820        0.01490704669247        0.03620741107775
C           36.36488089899080        0.09803715883420        0.09760889521227
C           37.00130191121126        1.21743316125310       -0.42555512589255
C           36.33430785385618        2.36801329466777       -0.96642508217144
C           37.29888406408240        3.23112096646431       -1.37361351462167
C           38.56802038489856        2.62323445040606       -1.07443343373023
N           38.35205131417055        1.40018506110373       -0.50974019642146
C           39.82275586430574        3.18741580750664       -1.34058372414669
C           39.84624441547275        4.54558059781787       -1.93652510169288
C           40.43099432029157        4.76359215090607       -3.18641916874649
C           40.45520767935452        6.02775657009036       -3.74842529254465
C           39.90501702649920        7.11157689518762       -3.05964066172213
N           39.89360410757300        8.37120473200928       -3.63506405077695
C           39.31393044583964        6.90155173781888       -1.81128266831199
C           39.28553304861794        5.63210117029090       -1.26107626432742
C           41.05685039426058        2.57651407764939       -1.09118736633694
C           42.34072958264131        3.18405735809408       -1.30686557376161
C           43.28097359442928        2.27764311620772       -0.93562655243131
N           41.24229397168851        1.31927050488453       -0.57930813034935
C           42.58236343357832        1.11184566068628       -0.48135913659862
C           43.20573973608060       -0.06274605863522       -0.01181307443236
C           42.54367155476380       -1.21094591866814        0.46949098556925
C           43.20132539446146       -2.40999579360524        0.89740774800408
C           42.23166948449978       -3.27605486449215        1.28908640532544
C           40.97111206227786       -2.60923161887441        1.11492860190370
N           41.19886979839825       -1.35840141612940        0.60418078527389
C           39.71796555003557       -3.16236523956375        1.40170333235836
C           39.69381784017500       -4.52533791208444        1.98641529216280
C           40.31034602939792       -4.78617415229704        3.21255547439848
C           40.28754413761416       -6.05542032963977        3.76320349165912
C           39.65623430653930       -7.10194860007735        3.08641097163694
N           39.59778627180247       -8.36465326787858        3.65208648339604
C           39.03311639595550       -6.84883517713177        1.86183558498725
C           39.05262356775198       -5.57435744211106        1.32313811149278
C           38.48360146919604       -2.53582859545398        1.18329399643798
C           37.19801362878920       -3.08168867494950        1.52859649055178
C           36.26264071159049       -2.17035332539877        1.16026363066975
C           36.96480374128029       -1.05209663977160        0.59667119094836
N           38.30717145826936       -1.30125200115516        0.63014787494680
H           35.27961793000526        0.12456657638283        0.11789127076838
H           35.26378199802254        2.48582170256034       -1.03078844591341
H           37.16644287909115        4.19075982316702       -1.84721531351113
H           40.85330565476801        3.92587022627576       -3.73069640687776
H           40.90258525677455        6.18197495522489       -4.72435980847589
H           40.59961501355060        8.52294690753746       -4.33781041681596
H           39.79896222964124        9.13438874306100       -2.98408025849675
H           38.88180674143169        7.73842716011421       -1.27344556538520
H           38.84157806740944        5.48078535245462       -0.28310316275029
H           42.50133020974986        4.18270399295726       -1.68015771293145
H           44.35381390847291        2.38541923172178       -0.95754735414536
H           44.26840937838571       -2.56612607768043        0.88750223031892
H           42.35736448827323       -4.28386562882886        1.65101006466426
H           40.79501220448126       -3.97724010115596        3.74835963696991
H           40.76042998121206       -6.24255286485830        4.72117599182059
H           40.31923009970440       -8.56100154740900        4.32752030736208
H           39.43841032175511       -9.11529379358702        2.99913436454640
H           38.53804594061865       -7.65635597854378        1.33344425700594
H           38.58246500134267       -5.39026670683275        0.36317951424117
H           37.03605686495045       -4.03527700211965        2.00521609003228
H           35.19077564492886       -2.23540505661251        1.26484616805978
Zn          95.61616271997097       -0.01622030572737        0.03944359571025
C           99.02313331484380        0.00022096201384        0.15901160950524
C           98.38717145611101       -1.05701332909281        0.79895143076516
C           99.05456903399035       -2.14108090864530        1.46279865553730
C           98.09034949851598       -2.96104048418589        1.95173591862064
C           96.82093396423393       -2.38076683138113        1.60296570685323
N           97.03650591704070       -1.23341215018458        0.89697189483449
C           95.56657404899248       -2.91953415685619        1.91873836252803
C           95.54377485864387       -4.16529398228387        2.72378704984185
C           94.96909153963604       -5.33210869356204        2.21400896437534
C           94.94526914215133       -6.49686554875811        2.96065258698936
C           95.48552834339895       -6.51471959357472        4.24890217787697
N           95.49738764534372       -7.68787289788633        4.98474728477340
C           96.06660666893950       -5.35350717536342        4.76450694799485
C           96.09484420977191       -4.19577306629354        4.00698825720219
C           94.33246503305594       -2.37920744408908        1.54013442892361
C           93.04845063445011       -2.90054461491179        1.91900589362345
C           92.10816646892334       -2.09200125212636        1.36628900381456
N           94.14696532684812       -1.25678414551704        0.77674804230273
C           92.80680678620426       -1.06442988002772        0.65236389743641
C           92.18344728366651       -0.02164571673597       -0.06357165641766
C           92.84520916778766        1.01841051861403       -0.74811933713254
C           92.18742528677136        2.03856323643549       -1.50962641816090
C           93.15678436761532        2.84645621110089       -2.01100751521057
C           94.41723857054593        2.33397668684797       -1.54992003188511
N           94.18977776804614        1.21463977248627       -0.79312255109897
C           95.67008461367459        2.88201126435837       -1.84772137468852
C           95.69405399976313        4.12487326758038       -2.65697237577431
C           95.07292468496478        5.28799937772942       -2.19553434380927
C           95.09614024103210        6.45086023210959       -2.94513595656530
C           95.73269486263331        6.47078729110263       -4.18861356297331
N           95.79176239256128        7.64271454550855       -4.92412689150564
C           96.36031230266971        5.31327080878602       -4.65565000547866
C           96.34020217108956        4.15739524469783       -3.89509467742846
C           96.90437245047598        2.35579103627769       -1.44329488459889
C           98.18937759006151        2.94930644279812       -1.70112856770149
C           99.12469665165708        2.14076899778678       -1.14208019525220
C           98.42305491072126        1.05018038581904       -0.52605006697651
N           97.08107501470755        1.21188367866315       -0.72108415293335
H          100.10818290243971        0.00647560852903        0.19816465631906
H          100.12516797313054       -2.25565668440790        1.53160636786990
H           98.22321057437348       -3.88547514598410        2.49073414430714
H           94.55435264590082       -5.32824969045299        1.21184025854937
H           94.50575780712485       -7.39913123910340        2.54932368855310
H           94.79657493699629       -8.36176816513996        4.71990551334392
H           95.58349710958080       -7.56306269726385        5.98085425989410
H           96.49098738284489       -5.36221342588290        5.76260216242463
H           96.53094588408217       -3.29344330462977        4.42178687642174
H           92.88771102290845       -3.76607842951750        2.54145260177906
H           91.03522260844004       -2.17370103516284        1.43834288709292
H           91.12050916010965        2.11504515178488       -1.64744990058451
H           93.03096513596749        3.70621013512984       -2.64933225897822
H           94.58433511440082        5.28325641215371       -1.22723426725958
H           94.61962371539272        7.35033534586715       -2.57071562124439
H           95.06808182694272        8.31193684773594       -4.71520870901525
H           95.95565567409520        7.51720697488423       -5.91032695102723
H           96.85943864660477        5.32355691257974       -5.61852829996201
H           96.81394090567430        3.25791896834304       -4.27316822442143
H           98.35089671825114        3.87469355993587       -2.23056433821350
H          100.19614811504181        2.26716242367379       -1.13352620411334
C           44.60966612452879       -0.08802216939729       -0.02296257683671
C           45.83472307657276       -0.09888261056833       -0.02763622973438
C           47.17672658427395       -0.10406695371594       -0.03366599758042
C           48.40795242834131       -0.10200809688841       -0.03393087891381
C           49.74522971142783       -0.09562524647643       -0.03264683800344
C           50.97642710207240       -0.08652371200162       -0.02965271936759
C           52.31823009229108       -0.07678331612051       -0.02554830297135
C           53.54346700828667       -0.06685670415896       -0.01931176854875
C           63.22782955252205       -0.04397207500678        0.00259888226499
C           64.45311546619156       -0.04427866256216       -0.00246837067821
C           65.79477899100741       -0.04396159012974       -0.00687846277444
C           67.02623966133994       -0.03899764659362       -0.00590271799817
C           68.36331831330689       -0.03831547737231       -0.00442891565209
C           69.59460464104366       -0.03706047583524        0.00026193353267
C           70.93619778246024       -0.03634854000730        0.00284326849881
C           72.16145004630025       -0.03495010203698        0.00818466036320
C           81.84596649957314       -0.02253412665199       -0.02320070692377
C           83.07100792593666       -0.02169820593710       -0.04456533324402
C           84.41275746619770       -0.02061785170174       -0.06625351264703
C           85.64380587565728       -0.01849169766654       -0.08474409141209
C           86.98112763673895       -0.01929983876084       -0.09729744841642
C           88.21222363686115       -0.01551589268269       -0.10458985064674
C           89.55434098181695       -0.01594345878834       -0.10146745593739
C           90.77940109068544       -0.01775956970809       -0.09171805993017
Zn          58.38600378719185       -0.04852567668762        0.00831413127496
C           54.94709033862665       -0.06293880749924       -0.01879359681710
C           55.58839815622089        1.14467731198587       -0.36439415947879
C           54.90725158357429        2.36621061966736       -0.67294741756961
C           55.86138282414623        3.29900875586056       -0.92640507847276
C           57.13504294208330        2.65108407157840       -0.78738966338400
N           56.93163892104705        1.34292432852955       -0.43567644305772
C           58.37978897445289        3.26876899416182       -0.95896213695141
C           58.37846302645515        4.69621836166233       -1.36212506200740
C           57.78938647127403        5.09975585484636       -2.56292302047955
C           57.78849977918611        6.43089462155085       -2.94105827903478
C           58.36703400854855        7.39559570895218       -2.11225994786365
N           58.40242078959852        8.72277975087163       -2.50492331354632
C           58.96217385602421        6.99999693442806       -0.91132342181938
C           58.96718581057186        5.66554925655496       -0.54588027820594
C           59.62632210817230        2.65706357192151       -0.78061770161221
C           60.89720183753791        3.28067184477767       -1.02087374464584
C           61.85481473107248        2.35781899030585       -0.74571374437881
N           59.83480345798077        1.36427884797790       -0.37874611664975
C           61.17865501078777        1.16063460446963       -0.34418468742899
C           61.82440500927096       -0.04041817449165        0.01571243901091
C           61.18270693029903       -1.24268500569191        0.37886374883237
C           61.86363885761814       -2.45976586796191        0.70622925928670
C           60.90949370091158       -3.38658046052252        0.97993710513744
C           59.63604031505940       -2.74008355464389        0.83101932100392
N           59.83961620354492       -1.43807449187006        0.45714718642103
C           58.39176635487769       -3.35628205236259        1.00813729048230
C           58.39445583669129       -4.77360774096360        1.44623923113254
C           57.82208697118849       -5.76814186506055        0.64965673751880
C           57.82410758884440       -7.09111832231754        1.05514399944421
C           58.38896514421962       -7.44749125919322        2.28227562510932
N           58.42738208836685       -8.77485568393971        2.67393346118519
C           58.96766480102833       -6.45953207970381        3.08289744589009
C           58.96987531976807       -5.14045449434771        2.66515461837240
C           57.14500173299982       -2.75128725445836        0.80912584788921
C           55.87351219665167       -3.37769904487177        1.03785907403521
C           54.91607824605680       -2.46058169539543        0.74326373953243
C           55.59304999554917       -1.26303832661689        0.34405769342373
N           56.93704552199158       -1.46217867368003        0.39522207897949
H           53.83604756682975        2.49058170945870       -0.68229141847140
H           55.71498341134581        4.33870838261463       -1.17112928074824
H           57.34664358553460        4.35584961598151       -3.21641989500592
H           57.33798743181895        6.73033164950211       -3.88122177300433
H           57.69546914082820        8.98834355577896       -3.17222612353942
H           58.52285103780156        9.38445812096361       -1.75458000181373
H           59.41674562935450        7.74348505235579       -0.26535611696438
H           59.41537173618206        5.36877025352485        0.39629146989755
H           61.03844506517865        4.29012146246097       -1.37205160656883
H           62.92527967320152        2.46866824291077       -0.81491340746653
H           62.93472960097580       -2.58526003002729        0.71511342533875
H           61.05492744234155       -4.42177897168821        1.24373166048767
H           57.38956095626005       -5.50102497598330       -0.30839448843210
H           57.38618757526275       -7.85559431127598        0.42262527098326
H           58.53480579437241       -8.92299637026848        3.66473507064656
H           57.72994692129213       -9.36427709851501        2.24825906558787
H           59.41113181197878       -6.73047247296723        4.03477385945861
H           59.40509470949449       -4.37677242656780        3.30052093585105
H           55.73072053780701       -4.38545562913150        1.39334717554140
H           53.84515814378139       -2.57536994164096        0.79876945905107
Zn          77.00308201630752       -0.02196873799120        0.01988349734335
C           73.56491774537555       -0.03379568124789        0.00461707103967
C           74.20598481447225        1.17485587328116       -0.33817819149459
C           73.52465085875721        2.39814992222903       -0.64044858013121
C           74.47840327905558        3.33072135765305       -0.89537033411818
C           75.75208821428076        2.68106487598695       -0.76327906008678
N           75.54902474015988        1.37193789440646       -0.41431033358795
C           76.99630787427171        3.29779811235026       -0.93891227471648
C           76.99536495959140        4.72550781426512       -1.34136596385029
C           76.40456726196352        5.12946222287059       -2.54107518282897
C           76.40825056634856        6.45994105295621       -2.92137765759502
C           77.00416496113955        7.42201220593678       -2.10173045289055
N           76.96754197312444        8.76008835961330       -2.45504055154783
C           77.58524282584075        7.02822147270720       -0.89360067560224
C           77.58558431844551        5.69438543798257       -0.52579709252814
C           78.24322331395399        2.68438422769960       -0.76773530681291
C           79.51346284699815        3.30766231982451       -1.01139390739789
C           80.47143564526233        2.38234652972654       -0.74552386674265
N           78.45217656252385        1.38991803364699       -0.37220072192506
C           79.79593857664682        1.18432728541434       -0.34560441622193
C           80.44251525173566       -0.01864583307657        0.00627806407257
C           79.80164602032880       -1.22014260417276        0.37287988163379
C           80.48236191938715       -2.43823638716116        0.69599805114625
C           79.52808609846733       -3.36365993602709        0.97475380485753
C           78.25488725276482       -2.71572431259334        0.83167328891914
N           78.45845429985873       -1.41396420729600        0.45775351443078
C           77.01051842298354       -3.33142215829357        1.01246360924582
C           77.01509520171007       -4.74840263735479        1.45204993941011
C           76.44264367647099       -5.74558880424193        0.65889325740326
C           76.44864607785209       -7.06785174812354        1.06688820814559
C           77.02818352444388       -7.42239811558404        2.28775480455655
N           76.99180584931550       -8.73617840807016        2.72286434161279
C           77.59200888029899       -6.42926548369147        3.09267117728456
C           77.59047745535644       -5.11102477690844        2.67231705554010
C           75.76365379075646       -2.72606614986248        0.81741831966222
C           74.49236924242642       -3.35267254699671        1.04764343602867
C           73.53466708013495       -2.43445896956958        0.75796365318835
C           74.21108088063623       -1.23588308610202        0.36065764664181
N           75.55501496536644       -1.43577159371027        0.40710733778242
H           72.45356722523628        2.52365049821922       -0.64476744179867
H           74.33236160886760        4.37130530252252       -1.13671078133772
H           75.95632204776196        4.38636099475197       -3.19186188418534
H           75.95208206529223        6.75995012460758       -3.85859445356292
H           76.84581880294026        8.93647039058969       -3.43966173066500
H           77.67450785324378        9.33348707160386       -2.02320347589890
H           78.03707619165131        7.77234687582404       -0.24650732888471
H           78.03124811473077        5.39769585337852        0.41748705577956
H           79.65445323065997        4.31881184879130       -1.35786083143935
H           81.54166941908061        2.49281728418665       -0.81897420785702
H           81.55336197679972       -2.56483301062758        0.69958429264532
H           79.67340011856412       -4.39896946378462        1.23817873903278
H           76.00648890759142       -5.48113532210230       -0.29826923047660
H           76.00676331456464       -7.83388922013185        0.43898245752378
H           77.68924134786877       -8.97637766301024        3.40919920424275
H           76.88561746933426       -9.42311328400382        1.99365234484946
H           78.03129088917075       -6.69631396576891        4.04767756085335
H           78.02237955791178       -4.34463647194415        3.30675486968656
H           74.35048560686226       -4.36138795886848        1.40052060987394
H           72.46386214804021       -2.54888211070799        0.81598395809289
