183
 energy: -313.821213316629 gnorm: 0.000373948274 xtb: 6.5.1 (b24c23e)
Fe          23.75618348797752       -0.01611207395747        0.02108531161165
C           20.36404873343682       -0.03966603691501        0.09421064110673
C           21.01184429619718       -1.24615452434464       -0.07121477313781
C           20.32834527703864       -2.49758959860528       -0.19976171766242
C           21.28296986721297       -3.45356089267347       -0.28325624491270
C           22.54907158055029       -2.78315808024036       -0.21033752964584
N           22.36940516271873       -1.43169040360280       -0.09007986204643
C           23.77226564005351       -3.44401217178549       -0.18484028047650
C           24.98601700296577       -2.78293557139009       -0.07131158064414
C           26.25523731525330       -3.44775009808478       -0.05441353943163
C           27.20203334644086       -2.48137855239714        0.00704176786448
N           25.16080822667062       -1.41951210004757       -0.02323972302408
C           26.50992077483008       -1.23059364245674        0.01517776098065
C           27.17016208458228        0.00439795397449        0.00129187785535
C           26.49478726259215        1.23112359018330       -0.02115861618614
C           27.16939833568950        2.48967145225812       -0.08637308844255
C           26.21057523353369        3.44563411673969       -0.05039022102016
C           24.95314195650672        2.76620618604475        0.05099155250066
C           23.73310344142280        3.41552791276291        0.16637177784012
C           23.71928929796105        4.89757042685777        0.22143542978645
C           23.09144158962988        5.63430844027428       -0.78353904847060
C           23.08191609935817        7.02013213372997       -0.73380660344059
C           23.69178628994969        7.68505305614027        0.32131265010139
C           24.31469581715180        6.95842129861795        1.32689337596031
C           24.33221376872034        5.57258247912437        1.27758159605149
C           22.52020416498889        2.73865188304732        0.23773608976469
C           21.25356570678233        3.38810876543251        0.41474976538674
C           20.31016672617563        2.41742800740746        0.39658645425946
C           21.00203042565571        1.17714490972242        0.21577032249209
N           22.35484160995344        1.38360327853759        0.14294088450270
N           25.14444785814210        1.40420020812423        0.03931200101869
C           23.77664381423718       -4.92553964505163       -0.27057313348422
C           23.34914719308522       -5.56685294328874       -1.43330484915891
C           23.35620594868626       -6.95154683653732       -1.51148729877513
C           23.78339765752708       -7.70980878339614       -0.42993556059559
C           24.20680137829469       -7.07800617237666        0.73139812070470
C           24.20676563998093       -5.69346271983328        0.81175471828889
H           19.28038819849175       -0.04827843541526        0.12959904956342
H           19.25584144208558       -2.61008613943265       -0.21327703568156
H           21.15466371970195       -4.52008955696941       -0.37218299283071
H           26.39369973730788       -4.51570646735115       -0.09676623235021
H           28.27439908010351       -2.58929202474143        0.03251276232066
H           28.23852314582187        2.60976052808249       -0.15583175001635
H           26.33289405189669        4.51555445940485       -0.09329921027789
H           22.62391687088624        5.11595656085347       -1.61327340420424
H           22.59638822827019        7.58335393656843       -1.52303923272632
H           23.68140233308134        8.76842119462894        0.35994164497399
H           24.78939469175894        7.47320840758946        2.15484881353387
H           24.80937025131916        5.00560642223222        2.06914260495604
H           21.11804040199410        4.44971358416424        0.54326973635657
H           19.24051414611064        2.51221750456864        0.49639880217392
H           23.02484914580958       -4.97502094289071       -2.28197696146246
H           23.02695023193802       -7.44055574891710       -2.42160413048120
H           23.78616326720737       -8.79213852683691       -0.49196965705801
H           24.53851932549536       -7.66599968047944        1.57997036801991
H           24.52749933441046       -5.20071559594398        1.72280936042933
Fe          60.88150985429577        0.04701169799220        0.03615533745334
C           64.27383177400998        0.05898830206109        0.10684113758551
C           63.62897924437542        1.27306327444131       -0.00647114881651
C           64.31538704947054        2.52721679635550       -0.08260974320220
C           63.36295952982745        3.48790405243454       -0.12879059397090
C           62.09534707981629        2.81789973183403       -0.08421879300520
N           62.27185488184593        1.46223874327091       -0.01947432645652
C           60.87387110475121        3.48012190572476       -0.03107569112874
C           59.65865960658685        2.81825016666191        0.05897619328962
C           58.39147029308888        3.48522680266121        0.10907343994712
C           57.44229040151095        2.51963229260356        0.13741663918576
N           59.48030021748711        1.45448492635697        0.05292926707768
C           58.13088733113415        1.26768174380648        0.09153421188059
C           57.46720661269980        0.03598993895861        0.03003685125732
C           58.13921310011231       -1.19025433795602       -0.04928824666926
C           57.46088779562619       -2.44300780939659       -0.16684683145102
C           58.41743090544038       -3.40179766183670       -0.18117644417051
C           59.67723477781283       -2.73058356664570       -0.05711931231110
C           60.89603882443909       -3.38741540867883        0.02243930583754
C           60.90600730308822       -4.87052390763099        0.00991090476675
C           61.52431445518715       -5.56258536052823       -1.03199245068643
C           61.52975905442490       -6.94928300995578       -1.04516880368670
C           60.92560214973625       -7.65962153981723       -0.01669804324409
C           60.31247487096693       -6.97760486260947        1.02548729622124
C           60.29883399210762       -5.59092321932282        1.03903176729252
C           62.11090857449182       -2.71767670006398        0.12145169949574
C           63.37601355728081       -3.37789669135339        0.26652213690289
C           64.32173267460358       -2.40970156243066        0.29449029086555
C           63.63288048308862       -1.16057409069924        0.17245622199208
N           62.27958344328886       -1.36013077932112        0.08979589799622
N           59.48944857430966       -1.36898647102928       -0.00579550690054
C           60.87365329797057        4.96404739814910       -0.05595868051225
C           61.29460256366163        5.65143240643942       -1.19442483495128
C           61.29195996357640        7.03821809713921       -1.21508918794053
C           60.87619997165978        7.75238323476342       -0.09960868464410
C           60.45952806152714        7.07442980025156        1.03788234242827
C           60.45478260713681        5.68775230270000        1.06065001653410
H           65.35747690712390        0.06344822691755        0.14343549529911
H           65.38815486677704        2.63776103927935       -0.09009839197996
H           63.49342973723213        4.55690325946278       -0.17456797193110
H           58.25606580376181        4.55442610315988        0.11035640087052
H           56.37038360799274        2.62915788454728        0.17334950715686
H           56.39101674853051       -2.55740720065489       -0.23434342127990
H           58.29210869150641       -4.46837572289194       -0.27193040963519
H           61.98757758311373       -5.00842833522233       -1.84070889046083
H           62.00761648305981       -7.47756061077856       -1.86274218977126
H           60.93283223504036       -8.74365195678641       -0.02727505885114
H           59.84239711162950       -7.52803453589321        1.83289511962277
H           59.82918911974183       -5.05896413724080        1.85889031807148
H           63.50883928301327       -4.44477609117029        0.34417801841861
H           65.39116208222096       -2.51168841268096        0.38949624046863
H           61.61055486427464        5.09415476344300       -2.06923047189834
H           61.61583306666680        7.56348996430214       -2.10674075134999
H           60.87715751387673        8.83636123569098       -0.11662121372730
H           60.13691390546067        7.62782882849481        1.91281464431810
H           60.13909435336382        5.15859527648051        1.95284617993604
C           28.57013146578665        0.01310688486409       -0.00082806165212
C           29.79688509506403        0.02098726923227        0.00246184629409
C           31.13569593614673        0.02958130344245        0.00791932750035
C           32.36892810013721        0.03444119687702        0.01310959723273
C           33.70278257774174        0.04170572858518        0.02023986227272
C           34.93612434385746        0.04424504051987        0.02659150111624
C           36.27459854574918        0.04594615624906        0.03242628757839
C           37.50172170795140        0.04679559086677        0.03698387396260
C           47.13553100637309       -0.00058503537429        0.03027781363896
C           48.36264903828057       -0.00147600111916        0.03432771506454
C           49.70114286814433       -0.00037086684206        0.03757416785023
C           50.93450667431045        0.00311264680500        0.04034910402632
C           52.26839326331001        0.00959025056026        0.04120948702818
C           53.50160734140816        0.01669557052195        0.04095939909323
C           54.84044651583616        0.02295584470532        0.03818236769977
C           56.06721875292200        0.03026726792992        0.03319368377320
Fe          42.31861491789954        0.02381809667833        0.03161527286898
C           38.90039805126850        0.04136973664965        0.03779779040842
C           39.56575016854436       -1.18572152324402        0.16447388976816
C           38.88551328737994       -2.43140943921399        0.32916347966631
C           39.83621954928851       -3.39719495463672        0.30770522664457
C           41.09186645929107       -2.73472975502869        0.12101713882623
N           40.91219078330531       -1.37373371784594        0.07289500291151
C           42.30078562685713       -3.39876599822098       -0.04200656706844
C           43.51694365102678       -2.74141742589816       -0.17540142740698
C           44.76587548572175       -3.40836269022896       -0.38920701330872
C           45.72671221171268       -2.45260093700070       -0.36759323945220
N           43.71082651632744       -1.38578963346600       -0.06769350292308
C           45.05926626850233       -1.20811565106407       -0.15004261776095
C           45.73684809023479        0.00557710555201        0.02902865745590
C           45.07192296886537        1.22650683115371        0.20708911199726
C           45.75292433765591        2.46412430725470        0.42160911097192
C           44.80244643596014        3.43012301973455        0.44302065548447
C           43.54601293421459        2.77632290921122        0.23236470343752
C           42.33642881223028        3.44670488551050        0.10240265645894
C           42.34527197677392        4.92916482802079        0.13224369714347
C           41.68578681776213        5.61898256195324        1.15004743193966
C           41.70065601055462        7.00535472177960        1.17896842526910
C           42.36476551149376        7.71723885250998        0.18932581144581
C           43.01893548638303        7.03729567562645       -0.82898485312920
C           43.01438552022604        5.65085840225041       -0.85682122099435
C           41.11960853997294        2.79532072086928       -0.05372797253446
C           39.86989222932885        3.47031834594660       -0.23550176782615
C           38.90930385925540        2.51421870884060       -0.25215321329419
C           39.57753159113616        1.26179975013654       -0.08976330945381
N           40.92616091315251        1.43628911020474       -0.00326054511089
N           43.72528171206169        1.41850646023872        0.12684847062131
C           42.29194741706939       -4.88136914594099       -0.07473706563147
C           41.62882444714164       -5.56041012368262       -1.09731724059200
C           41.62457704014575       -6.94680358011463       -1.12815179967422
C           42.27261789800704       -7.66909803978156       -0.13542639218520
C           42.93063956859223       -6.99969245866345        0.88735904871842
C           42.94559761710877       -5.61330278877893        0.91692821744385
H           37.81888092455902       -2.53800416375769        0.44376401386788
H           39.70909024693439       -4.46242447765775        0.41094787511152
H           44.88189121389787       -4.46943338505093       -0.53831227470877
H           46.79240194015500       -2.56514724918138       -0.48545128231970
H           46.81991089589456        2.56576983058663        0.53735081168397
H           44.93053216831116        4.48997613973200        0.59068611399356
H           41.17537285268263        5.06314010722515        1.92858813630497
H           41.19156222543464        7.53202164376217        1.97843489203060
H           42.37259789648967        8.80105822623975        0.21169430761329
H           43.53579661916606        7.58906666904948       -1.60623625709007
H           43.51746275414578        5.12023369684481       -1.65742405576684
H           39.75290657234863        4.53664931433153       -0.33932515313909
H           37.84326774761520        2.63145704047349       -0.36198188921648
H           41.12982980891861       -4.99628769309690       -1.87731998184827
H           41.11276513459022       -7.46528840019691       -1.93122189476056
H           42.26486739591781       -8.75289914719257       -0.15885649112275
H           43.43455247431510       -7.55965127184730        1.66718513332303
H           43.45168961478083       -5.09067383737121        1.72084622406220
