256
 energy: -471.523597042215 gnorm: 0.000902032388 xtb: 6.5.1 (b24c23e)
Cu          44.14991622168002        0.00421750517560       -0.00646602879243
C           40.74380849046189        0.04947814620667       -0.07843219647808
C           41.38094153411354        1.27033550072809        0.08233724234656
C           40.70728014252068        2.52540536405769        0.25558209018481
C           41.66712550463031        3.47264875536001        0.39574469502342
C           42.93716438831800        2.80500712662948        0.29924687808910
N           42.73223103418195        1.46793873236728        0.11765092508722
C           44.18315469967673        3.42755885759173        0.40884517696436
C           44.19656671150977        4.89925239667198        0.58911439832336
C           44.73616397334411        5.46647392514503        1.74748371723342
C           44.74259374423296        6.83776809790258        1.91523148381096
C           44.21472378590647        7.67437757260208        0.92618061626972
C           44.23613665084683        9.13466809079332        1.12707350384390
O           44.68734458077677        9.66882510116791        2.10747266490404
C           43.67773232939503        7.10904978605215       -0.23288789494972
C           43.66679170114268        5.73541437208050       -0.39759345907656
C           45.41567040637928        2.77267695042971        0.36124485622270
C           46.69427111546230        3.42263790986811        0.42221494734660
C           47.63858774017564        2.45314455169617        0.32332870647874
N           45.60157848727745        1.42363110185688        0.21352998010944
C           46.94526959718546        1.20693764439595        0.19302012079951
C           47.57996731936487       -0.03977613389228        0.05143181039460
C           46.91881159346600       -1.27092858705414       -0.10379533104199
C           47.58496509176841       -2.52783505949692       -0.26893601488857
C           46.61975837214278       -3.47332220872195       -0.39508504277182
C           45.35561998179886       -2.79953584613099       -0.30056904014319
N           45.57079454245309       -1.45740558758866       -0.13134164062005
C           44.10941110945033       -3.42093542461695       -0.40396161148436
C           44.09076729542119       -4.89535611399144       -0.56179564642531
C           43.55397297247519       -5.47687399126844       -1.71367739862981
C           43.53209715970208       -6.85259474417481       -1.85947607562318
C           44.04150532552171       -7.67514293390945       -0.85181877653623
C           44.02363308616998       -9.14375193292971       -0.97939302502420
O           44.44270576633247       -9.89389867014576       -0.13543800249918
C           44.57756845506869       -7.09345522141025        0.30187389939977
C           44.60497488953893       -5.71951493046448        0.44370790635473
C           42.87731995615874       -2.76341460168345       -0.36578241949123
C           41.59316940085062       -3.40739768496344       -0.43015406975519
C           40.65405943812008       -2.43338954803775       -0.34299046900611
C           41.35466892648238       -1.18777445977582       -0.21418694081766
N           42.70130337245117       -1.41701777129206       -0.22732350929652
H           39.65883638147931        0.06205307182327       -0.08686593598318
H           39.63607446407591        2.64993337070817        0.27373682075264
H           41.53385964766609        4.52921237077067        0.56362707241990
H           45.13484943158922        4.82007356987983        2.52118512719476
H           45.15412451026337        7.28541045998971        2.81351381800951
H           43.79237177835385        9.71611437436777        0.29077510968248
H           43.26934513943110        7.75083162045385       -1.00681966302658
H           43.26039065314633        5.30000978935595       -1.30357843172330
H           46.84647131294666        4.48574464181067        0.51439685611534
H           48.71113691114318        2.56304453718051        0.33040042157606
H           48.65491880933183       -2.65914884341199       -0.29036762826679
H           46.74837281129740       -4.53192846235230       -0.55227944135361
H           43.16765831394420       -4.84057298405522       -2.50199392715309
H           43.11823464814706       -7.29561908686447       -2.75954254246211
H           43.58522747135544       -9.51334674246965       -1.93090990673924
H           44.96770652236259       -7.74001723788446        1.08057018878053
H           45.00999103764240       -5.27163598898648        1.34413834348678
H           41.43695614205291       -4.47051422905550       -0.51751015406242
H           39.58042380012906       -2.53556924556261       -0.35546215627708
Cu          92.28866525618875       -0.04157042779907       -0.02920072155159
C           95.69474783044507       -0.07388080097974       -0.07652520718737
C           95.05828229028289       -1.30549231080348       -0.09718312344492
C           95.73294759272382       -2.57191605877046       -0.09733395962948
C           94.77387460471788       -3.53021677226227       -0.10450991189397
C           93.50339347173956       -2.85668342779519       -0.11952847921999
N           93.70715963778206       -1.50714915501006       -0.10515010075948
C           92.25775164952412       -3.48961056550532       -0.11752561666906
C           92.24519852158048       -4.97187026622312       -0.15071442882131
C           91.68789296429703       -5.69954814889553        0.90508530307651
C           91.68215862473804       -7.08074425880149        0.87431893436018
C           92.22881414918398       -7.76680901309212       -0.21528729253377
C           92.20888969469260       -9.24074326623634       -0.22597780072154
O           91.74088833055428       -9.91042672835860        0.65889530506692
C           92.78324328564686       -7.04094548980555       -1.27225300384756
C           92.79312341596679       -5.65791333456086       -1.23820328682088
C           91.02441647132652       -2.83526483826572       -0.08683464219373
C           89.74639866688486       -3.48718777556622       -0.13962750151761
C           88.80152771751654       -2.51382072446276       -0.10535190776232
N           90.83774768794773       -1.47928615554278       -0.03597650513681
C           89.49417820212325       -1.26206656635910       -0.03926745051571
C           88.85906086302636       -0.00855181849792        0.00739902978542
C           89.51900740790616        1.23228136789123        0.04597151365211
C           88.85173146282497        2.49917921558273        0.06677224350256
C           89.81605875481389        3.45370644697210        0.08623125404911
C           91.08080765891435        2.77444295644312        0.08472423872585
N           90.86694423848951        1.42181819262622        0.05247302453468
C           92.32643556566423        3.40544255091873        0.07777206310170
C           92.34411494474040        4.88729023254760        0.13312687936901
C           92.88573262612788        5.62684098724761       -0.92187704894390
C           92.90875027664323        7.00921258360213       -0.86987716618858
C           92.39549222244671        7.68001476234407        0.24280732819483
C           92.41676634950508        9.15178154142869        0.32688323555660
O           91.99639711508122        9.77456771388243        1.26812055608375
C           91.85359800162941        6.94015177287761        1.29904871476579
C           91.82517592527866        5.55997286933846        1.24340763398512
C           93.55934301296243        2.75027024785249        0.02608390410019
C           94.84295276275303        3.39752706613618        0.06255362733859
C           95.78291645133918        2.42157051768655        0.01553945510582
C           95.08332276828362        1.16996492725420       -0.03983703451548
N           93.73650727033508        1.39809375928886       -0.02929627664996
H           96.77976934372521       -0.08496806477421       -0.07703742185188
H           96.80417594024622       -2.69688412698146       -0.08516390320753
H           94.90781501000274       -4.59981000246607       -0.08749083978796
H           91.27480964461972       -5.17109219229315        1.75683542697061
H           91.25697095447825       -7.65253347483665        1.69217726983651
H           92.66787981131847       -9.69611633152840       -1.12941535081892
H           93.20600254477664       -7.56504040929424       -2.12328078959388
H           93.21294625168565       -5.09696745639279       -2.06562598373667
H           89.59504389266191       -4.55220193031978       -0.20834856565363
H           87.72918238471469       -2.62352648758304       -0.12830812317518
H           87.78168867687852        2.63138404796506        0.06042199628198
H           89.68645435501860        4.52379745055149        0.08751958315847
H           93.27523565562944        5.10901529847824       -1.79119004308312
H           93.32675170041239        7.57572887804996       -1.69571562227556
H           92.86006923813957        9.65253454644941       -0.56024693921068
H           91.45998635807995        7.46942420711110        2.16019098185270
H           91.41597051867974        4.98884966787054        2.06911202896118
H           94.99827684805685        4.46226750500066        0.12933417644361
H           96.85644344576015        2.52519786498561        0.02482755407492
C           52.78298911993588       -0.07081866815179        0.05238920128637
C           51.55466216811239       -0.06968588537809        0.05856839817205
C           50.20981700783272       -0.06284859702926        0.05882800893990
C           48.98608067606401       -0.05442058711484        0.05630349962851
C           54.12769137991474       -0.07217330615387        0.04599848910537
C           55.35164808771478       -0.07058773431850        0.03999877515518
C           68.83435830497160       -0.03030007285149        0.00026178134978
C           67.60586298095261       -0.03171413039002       -0.00911240626305
C           66.26148320128941       -0.03381987512752       -0.01647655089698
C           65.03737123809798       -0.03484355234495       -0.02257226051131
C           70.17871100466746       -0.02786663696950        0.00992397194700
C           71.40279550884536       -0.02557687843811        0.01927200746803
C           84.88444833700304        0.01649116533064        0.00808648384114
C           83.65625901238813        0.01394656878396        0.00491122628035
C           82.31160738062229        0.01045969262687        0.00140709262381
C           81.08774684237565        0.00608935176495       -0.00266987623193
C           86.22926041908524        0.01100139518542        0.00872511406097
C           87.45293081072049        0.00426265678998        0.00739596034298
Cu          60.19457678787565       -0.05060476794901        0.00243880254104
C           56.75710925942166       -0.06567487243572        0.03165626736781
C           57.40401472128351        1.13672965111504        0.36984393294682
C           56.72460181448554        2.35886774555330        0.67793410019539
C           57.67945413668586        3.28036880504409        0.96344565790373
C           58.94897369718630        2.62242900039987        0.83920545056377
N           58.74874435034108        1.31985035426806        0.46787030481261
C           60.18921701665410        3.23064420107625        1.04621926546246
C           60.18662611463659        4.64283508082237        1.49835826022296
C           60.76451100237141        5.64076152745265        0.70784421679075
C           60.75882503328717        6.95609468504964        1.13040670830670
C           60.18116910857853        7.30317328175762        2.35619627355638
C           60.19160780017176        8.71311310577855        2.78693949077677
O           60.67407153276168        9.60695062765306        2.13980538928668
C           59.60594154196803        6.30651219557292        3.14821625715838
C           59.60615339808622        4.99055001490404        2.72127681627332
C           61.43154226823807        2.61910951947120        0.86392602294613
C           62.69903898473048        3.23177149985220        1.14360246841507
C           63.65676322275903        2.31708495034862        0.84637759717813
N           61.63596917109239        1.34145762366040        0.41569982867625
C           62.98116509763240        1.13908157975557        0.39223755904944
C           63.63218128766250       -0.03749430717588       -0.02078087534074
C           62.98431390462064       -1.21770772660460       -0.42861693069213
C           63.66230283637486       -2.38946887487929       -0.89480653398285
C           62.70749338495165       -3.31195009682011       -1.17743134256707
C           61.43967532286945       -2.71049168941687       -0.87597689439081
N           61.64060038741139       -1.43101512530597       -0.43156379817437
C           60.20001768745610       -3.33477791550879       -1.03274667592979
C           60.20281263613577       -4.75113892568992       -1.47121430647966
C           60.80971828908150       -5.73145392423883       -0.68120236443625
C           60.80812206919742       -7.05549082259653       -1.08237661770434
C           60.20400367749870       -7.42493955654590       -2.28652964876421
C           60.18815894721320       -8.82885853082913       -2.73645322220581
O           59.68013791611508       -9.19618236082679       -3.76477727533927
C           59.60092208085099       -6.44340228992757       -3.08000193270294
C           59.59767970747736       -5.12232781761338       -2.67575107337038
C           58.95805489148024       -2.73691280275883       -0.80669691432108
C           57.69218288035417       -3.40610840839002       -0.90684467275483
C           56.73448522017703       -2.49156312001220       -0.60915391558622
C           57.40860720123663       -1.26286813418908       -0.31577373151907
N           58.75299240044738       -1.43483544059874       -0.43592924327460
H           55.65425561500795        2.48827699640108        0.66693961484026
H           57.54031022930398        4.31778569442744        1.22101524749927
H           61.20289290073887        5.37631414328978       -0.24780861098318
H           61.19939133112307        7.73722444623855        0.52019285125394
H           59.71226078857527        8.89202459704171        3.77304643842847
H           59.15897245235840        6.56659267349266        4.10225115069088
H           59.16925069021117        4.21715446536749        3.34299609390350
H           62.83515223621661        4.22828907881586        1.53129014763836
H           64.72675332973331        2.41926979290379        0.93103755007320
H           64.73152733076539       -2.48228521573884       -0.99803897332630
H           62.84568859749368       -4.30638571099156       -1.56978176317618
H           61.26839197132390       -5.44911521671314        0.25978497752739
H           61.27570753005309       -7.81092815013786       -0.45925942184045
H           60.69017443650992       -9.53578968841284       -2.04184107437634
H           59.13823641014193       -6.73898297493486       -4.01551494327507
H           59.13944256172674       -4.36216302659457       -3.29829989735128
H           57.55720277719087       -4.44545132799262       -1.15858834192913
H           55.66559872582751       -2.62983976782242       -0.57989072116762
Cu          76.24523847462602       -0.01017323692205        0.01026559675175
C           72.80800164772072       -0.02190365254002        0.02131915809126
C           73.45404853794321        1.17834268053696        0.36901627546742
C           72.77352594505126        2.39938280916587        0.67942955097799
C           73.72751827511307        3.32081454520025        0.96792527492935
C           74.99756753949279        2.66405869005542        0.84291544855028
N           74.79833521505920        1.36153562661784        0.47032272413392
C           76.23741440308682        3.27402117553504        1.04592999596293
C           76.23586160256846        4.68872634011662        1.49051608227637
C           76.80876585908348        5.68188719422260        0.69036807750946
C           76.80624185356180        6.99960703843790        1.10523824065566
C           76.23759912362998        7.35378145684622        2.33323112846615
C           76.25204095359021        8.76629471399136        2.75568199076104
O           76.72251807430941        9.65706979495576        2.09578843018565
C           75.66749776630277        6.36194291253396        3.13482124800466
C           75.66362115656769        5.04353073321296        2.71513059790186
C           77.48004873507799        2.66293166217937        0.86398041076456
C           78.74718562159616        3.27861413028643        1.13892425916899
C           79.70552165948094        2.36296945216674        0.84708459639547
N           77.68523280120252        1.38303962774684        0.42306393505103
C           79.03069537024902        1.18144506960521        0.40091823361619
C           79.68229119442044        0.00192921652377       -0.00163252788050
C           79.03628037009582       -1.18147914276387       -0.40232888848446
C           79.71608371304117       -2.35557706268028       -0.85981665197998
C           78.76211104808232       -3.27766895378535       -1.14648769019060
C           77.49297391199920       -2.67370874581909       -0.85567619368345
N           77.69237329955347       -1.39371176411335       -0.41248532674536
C           76.25331502743538       -3.29532173353680       -1.02348214712994
C           76.25743341802168       -4.71002783121343       -1.46734711665995
C           76.85554372252174       -5.69522576511689       -0.67667832718237
C           76.85969345769237       -7.01654552053598       -1.08669144183020
C           76.27019258680814       -7.37837834419506       -2.30039806390175
C           76.26539423883999       -8.77842356584887       -2.76230490751796
O           75.76981609607374       -9.13944859645270       -3.79896334672402
C           75.67360971281320       -6.39232482227961       -3.09321726733374
C           75.66461452900091       -5.07400285070010       -2.68019047708793
C           75.01089025189488       -2.69493276494878       -0.80773360906133
C           73.74461327587839       -3.36135837488743       -0.91973115968476
C           72.78634130828002       -2.44559906089163       -0.62762014360565
C           73.46043580284800       -1.21874669069789       -0.32638879582917
N           74.80527087892864       -1.39300144680930       -0.43614641917464
H           71.70308946889908        2.52794937015103        0.66738627938703
H           73.58756348799874        4.35751984485288        1.22793132800367
H           77.24105233688184        5.41152247427531       -0.26641362805990
H           77.24300036191487        7.77708682492911        0.48768602668695
H           75.78697661341985        8.95033066591230        3.74761469271218
H           75.22751408635641        6.62749542129604        4.09060629313691
H           75.23044467438612        4.27401306566572        3.34420841546038
H           78.88251413241390        4.27779540907488        1.51992324391004
H           80.77543492155220        2.46654570190156        0.93095380121294
H           80.78586741907817       -2.45016992042021       -0.95552562413727
H           78.90178011767537       -4.27334998760243       -1.53516658135880
H           77.30364061921084       -5.41875944632205        0.27112817930596
H           77.32105011401937       -7.77578862099041       -0.46353621677589
H           76.76247034939249       -9.48913912690376       -2.06805201350218
H           75.22152912325413       -6.68202998487106       -4.03573191836773
H           75.21229080139321       -4.31015502538325       -3.30255589699784
H           73.60962911783871       -4.39994809750936       -1.17463999874116
H           71.71699361129757       -2.58184298638222       -0.60704228713811
