252
 energy: -499.038869204501 gnorm: 0.000608945391 xtb: 6.5.1 (b24c23e)
Fe          53.83649700251998       -0.00139709677296       -0.07283236199540
C           50.44394901798080        0.01137272988942       -0.15330631799178
C           51.08920839367246        1.22633305049565       -0.05627480665520
C           50.40160729534860        2.47813193766766        0.04435207468995
C           51.35304590733998        3.43940370848008        0.09285110604593
C           52.62069497098314        2.77278032638845        0.00780857549192
N           52.44613016133599        1.41704169850252       -0.05839598499946
C           53.84388568560563        3.43450866167705       -0.01181689975204
C           53.84739140574155        4.91760575917764        0.02230569014000
C           53.26225047530640        5.64504640690746       -1.01408302541549
C           53.26806112002716        7.03459596091232       -0.97947269204395
O           52.71023704799694        7.75180797225834       -1.98506232577043
C           53.85183734272945        7.70093626293342        0.09935846242724
O           53.83767245549882        9.07080120054819        0.10902749873192
C           54.43237111295545        6.97380421698555        1.13560285435293
O           54.98173869087245        7.69731861523246        2.16119275358160
C           54.43749620427113        5.58505812799538        1.09897121195162
C           55.06071261466782        2.76961200754991       -0.06094465826887
C           56.32695612969231        3.43469209891726       -0.14473067218819
C           57.27601067274309        2.46837908543513       -0.14270021987840
N           55.23887206797859        1.40639086791932       -0.03682995733937
C           56.58864366222774        1.21786905308502       -0.06222707865083
C           57.25074429256480       -0.01494295624985       -0.01035506959121
C           56.57793916640244       -1.24217088533558        0.02674582187727
C           57.25561792111927       -2.49921465937924        0.09168015439251
C           56.30045390535001       -3.45823408946382        0.06370409147697
C           55.03857576818642       -2.78246868074867       -0.00539491088287
N           55.22726466120810       -1.42003057870421       -0.02059180216799
C           53.82061460958335       -3.43706289012309       -0.11213165005078
C           53.81092777156427       -4.92128715974768       -0.13217516355431
C           54.23108471438050       -5.64143264609552        0.98563908389199
C           54.21375640010962       -7.03137371986220        0.96499527746694
O           54.61134131767529       -7.74218386362415        2.04823497012261
C           53.78364713825881       -7.70455135824279       -0.17961600042222
O           53.78043297546661       -9.07504148244897       -0.17236826698511
C           53.36893534235071       -6.98429478025145       -1.29694946528893
O           52.96449866351418       -7.71416992635304       -2.38388973128208
C           53.37654372767737       -5.59517031678108       -1.27650042741770
C           52.60508014383895       -2.76682855980744       -0.20490923815820
C           51.33391470180182       -3.42757601667743       -0.28174466648482
C           50.38905713697434       -2.45843379621236       -0.29638519557735
C           51.08339564344559       -1.20898881545610       -0.21845335014840
N           52.43803063220000       -1.40921530497178       -0.16940589686406
H           49.35979691856071        0.01519277381585       -0.17142193149543
H           49.32908782811469        2.58599429643429        0.07758525735070
H           51.22117299825280        4.50529520533466        0.18301810460194
H           52.81772413400274        5.13834042985519       -1.86087249239314
H           52.81159798057462        8.69587754003148       -1.77966065841547
H           54.27709484090405        9.36876941709138        0.92142802752912
H           55.35161166369193        7.11235172909152        2.83541840758573
H           54.88029561427616        5.02486306759810        1.91408000504431
H           56.46240051560456        4.50197904662639       -0.21004642383000
H           58.34647329787134        2.57921232238866       -0.20090233208441
H           58.32511186507346       -2.61887480860427        0.14841263489450
H           56.42958072803780       -4.52800456926808        0.07847668137379
H           54.55425702666496       -5.12895446443567        1.88244890493313
H           54.52305904572668       -8.68743170230301        1.84250457629968
H           53.45005106856423       -9.37694714186451       -1.03345183046734
H           52.69316498275039       -7.13261283496047       -3.10620381301368
H           53.06334354621097       -5.04034161178802       -2.15306502254037
H           51.19397992188876       -4.49610890961672       -0.30584617760856
H           49.31645461622215       -2.56061747186429       -0.34340124611162
Fe          86.34929539513428       -0.07441023068599       -0.02287211184156
C           89.74092987333577       -0.10160239317333       -0.09376677746315
C           89.08750135316461       -1.31562439364970       -0.12757043197174
C           89.76553085207942       -2.57616124670899       -0.16005279276170
C           88.80732957745195       -3.52912436673255       -0.23553060283101
C           87.54537258609835       -2.84717472508504       -0.26025267175840
N           87.72940085479451       -1.49459589826790       -0.16635788030880
C           86.31814533646930       -3.49217347167446       -0.37618221533747
C           86.30530795051611       -4.96766190575188       -0.52712647994027
C           86.90414073063600       -5.56465127868193       -1.63653617303554
C           86.88878792151735       -6.94747014938978       -1.77652876621953
O           87.45969729771431       -7.53776273296692       -2.85451224075790
C           86.28218546758292       -7.73866804796704       -0.79936336701678
O           86.28789001180168       -9.09907835268309       -0.96067489747236
C           85.68842753911322       -7.14204280495789        0.31015086022283
O           85.11761814365958       -7.98343339019709        1.22864325660136
C           85.69260091874924       -5.75969113128472        0.44772303203558
C           85.10643189912776       -2.81691445586117       -0.35304275533161
C           83.83567030551147       -3.45596448195740       -0.52559447911355
C           82.89340384916923       -2.49170634256447       -0.39681770833615
N           84.93775986781547       -1.46674605515919       -0.15377661140698
C           83.58951770971785       -1.26743406393109       -0.15315116012222
C           82.93661545692645       -0.04734591217205        0.06225882427541
C           83.61843687603036        1.16164241152576        0.24766686126097
C           82.95022711867875        2.40518747772734        0.47198582358154
C           83.91123532363676        3.35646771419142        0.54093044330660
C           85.16734153825085        2.68752721787717        0.37280276724436
N           84.96925838178153        1.33698064628611        0.20283126123842
C           86.38778010625379        3.34413889875692        0.31779735079754
C           86.40649617726538        4.82128067839376        0.46146592045967
C           86.00693615112490        5.41431965663647        1.65876883455086
C           86.02988104441194        6.79789758631528        1.79193207440598
O           85.65092288116405        7.38495338295616        2.95295179544024
C           86.44567757304968        7.59264434395764        0.72230167490212
O           86.45476718287033        8.95317076504708        0.88180304586519
C           86.84018863761113        6.99934752983851       -0.47432216526685
O           87.23114694419618        7.84394800931609       -1.47962664371829
C           86.82675054935660        5.61643099611917       -0.60777538772378
C           87.59748720583706        2.68130896182572        0.13595848762173
C           88.87230433108077        3.33900520366075        0.11759661468974
C           89.81111538598344        2.37047104539748        0.00351096178275
C           89.10933882734726        1.12358468937490       -0.04001237523569
N           87.75611717084062        1.32618171357590        0.03193826374994
H           90.82512153557946       -0.11082369045681       -0.10690540816144
H           90.83675815345605       -2.69571299100236       -0.12538347792890
H           88.93100003345208       -4.59935301074785       -0.26677171299224
H           87.36617119992718       -4.95969717404438       -2.40591513180115
H           87.34499647937707       -8.49896362203478       -2.77317487675873
H           85.82861569834985       -9.49191426679866       -0.20136618321058
H           84.73386504833917       -7.48310100504563        1.96074058476581
H           85.23959779730467       -5.30232354159171        1.31944928287032
H           83.69279145547848       -4.50429686986927       -0.73088130708615
H           81.82234648042196       -2.58630863104331       -0.46973594422156
H           81.88246984421595        2.52235112340060        0.55926928448578
H           83.78910505401976        4.41775347626890        0.68244299145691
H           85.69547427439717        4.80643759470613        2.49831786706573
H           85.73564121782580        8.34734797272771        2.85073530599839
H           86.76574788343098        9.34983506673330        0.05249763393711
H           87.48230109740156        7.34633586899861       -2.26883228457862
H           87.12349433026431        5.16137109291412       -1.54540678390844
H           89.01872900218936        4.40385963058260        0.19854442588948
H           90.88413722407660        2.47057329353905       -0.03779255603172
C           58.65456002184305       -0.02002872287269       -0.00115242039948
C           59.87366695529038       -0.02358203986261        0.00330735642030
C           69.48575381448751       -0.00588502127836        0.01554275682386
C           70.70565591150316       -0.00204564178482        0.01885088989289
C           80.31428484044021       -0.02478039304454        0.08430808586348
C           81.53348984034319       -0.03435144047825        0.07881333558030
Fe          64.68212459707330       -0.01403461948185       -0.02040364243694
C           61.27604780049197       -0.02282400653647       -0.00071039187841
C           61.95047577137073        1.15559117475008        0.34907961914688
C           61.29609686111271        2.34897462478869        0.78036016978035
C           62.24863162927539        3.31309420521215        0.84612208318375
C           63.48060192977785        2.70190889414750        0.44968176087982
N           63.29059181116569        1.36441938039559        0.20865722398760
C           64.67261807511277        3.39247819796917        0.24592921720934
C           64.65852412853860        4.86852411869656        0.33709420621198
C           65.50368270817089        5.53293092321731        1.22792980867647
C           65.49972499665762        6.92164408486551        1.31895973111079
O           66.30884806068848        7.57897201477981        2.18929089432341
C           64.64756504011090        7.66864656981568        0.49809314799790
O           64.62803524950678        9.02422952617275        0.55613598776437
C           63.80614945522832        6.99659458701339       -0.39342552524006
O           63.00013538388421        7.78735985615671       -1.17030009650185
C           63.79875353563784        5.61189201746804       -0.47538331009237
C           65.87235061061700        2.75114748182432       -0.04059473005510
C           67.11015896846048        3.42120290018233       -0.30410289862947
C           68.07011678760348        2.46382801397085       -0.35032034548404
N           66.06940634321283        1.39167507456610        0.00028626923997
C           67.41250891654661        1.21477280367439       -0.13304981868813
C           68.08634714848175       -0.00786041674965        0.00592310201106
C           67.41323247742690       -1.23234997728762        0.12263850841477
C           68.07315288566933       -2.48433367104071        0.31899574843382
C           67.12023291070358       -3.44438091889888        0.22513820109394
C           65.88286120811551       -2.77244900485177       -0.03691958616291
N           66.07267000567508       -1.41169684871790       -0.03767877939551
C           64.68876308949893       -3.41294390342176       -0.34524798829005
C           64.68875721750545       -4.88785426465237       -0.48172645474631
C           65.52105564336892       -5.50371550451504       -1.41793818562185
C           65.50956436682303       -6.88683916893614       -1.55190221419260
O           66.29808139068778       -7.49612570290416       -2.46849177376706
C           64.67240679972851       -7.65689559494348       -0.74152500051870
O           64.69588599830831       -9.03331453546918       -0.90615352057580
C           63.86997625604970       -7.04594899515295        0.22044438286325
O           63.07569743968409       -7.79421670739864        1.03853285218740
C           63.86320025487131       -5.66059311445764        0.33615396363723
C           63.49068418901581       -2.72789782113205       -0.52323380389399
C           62.25518223697648       -3.34249842387834       -0.90433728890298
C           61.29705299338308       -2.38811608667688       -0.80077975035280
C           61.95141653377960       -1.19552993093975       -0.36574327523998
N           63.29557913462524       -1.39591713566040       -0.25501965246922
H           60.24506027340245        2.42787861539302        1.00552134725761
H           62.13505818572330        4.34250386289003        1.14476154703127
H           66.15678678493101        4.96377406975236        1.87977103362077
H           66.84512895880373        6.96140611735500        2.70370720313752
H           63.97469993183179        9.34738954693661       -0.08525196792336
H           62.45519377922216        7.25054936320963       -1.76041537705028
H           63.14860790582668        5.11527875370561       -1.18594841840198
H           67.22362621588016        4.48429707661098       -0.44063079939670
H           69.12777587013088        2.58130664839139       -0.52263737208746
H           69.12834290738508       -2.60091295860017        0.50581807013857
H           67.23623250111592       -4.51098214178892        0.32698002069619
H           66.15699897787087       -4.91417687706742       -2.06551368812230
H           66.14726411150541       -8.45458658626238       -2.41231589128003
H           63.80469050031484       -9.40069500706636       -0.84009718721709
H           63.37518016107144       -8.71395928414916        1.05434538524520
H           63.23683666101685       -5.19710888649137        1.08724628908910
H           62.14316589971827       -4.36894058724868       -1.21329498603304
H           60.24164661895186       -2.47242076046545       -1.00204203209358
Fe          75.50829682685026       -0.00709249426598        0.02435386916989
C           72.10502868187282       -0.00235145683856        0.01822195076495
C           72.78016942125225        1.19282612116156        0.30681986144627
C           72.12356527693250        2.40772578812245        0.67100196139107
C           73.08065857725141        3.36830328746918        0.71475766079737
C           74.31667219437163        2.73465760652547        0.36729718490463
N           74.12189666535316        1.38812025626144        0.17854975624209
C           75.51564379361052        3.40682286486925        0.15400149892337
C           75.52050623086818        4.88464348803940        0.20754686694290
C           76.36854665121474        5.55542745310903        1.09114463666234
C           76.38055562457643        6.94541903774570        1.15723190568596
O           77.19021627076165        7.60914508586993        2.02153957189867
C           75.54260851366966        7.68715153586658        0.31690449710532
O           75.53758661769089        9.04332048541476        0.35147477426294
C           74.70089192417601        7.00883223608048       -0.56969318918306
O           73.91159428660640        7.79513111600624       -1.36765142192387
C           74.67676226622106        5.62293033261305       -0.62605631616502
C           76.71238866535577        2.74445482055833       -0.10519359296044
C           77.95186887860271        3.39586034066407       -0.40264370826922
C           78.90583498477946        2.43130144813302       -0.41649966996466
N           76.90114997296224        1.38812843948477       -0.00840826176237
C           78.24450923876836        1.19691400719804       -0.13831497019512
C           78.91254625065255       -0.01721740386250        0.07616971669173
C           78.23054397087813       -1.22737976171447        0.26506740003800
C           78.87661155375498       -2.47097506869056        0.53983738473364
C           77.92088886468173       -3.43077424577742        0.46527891417311
C           76.69510233670290       -2.76618609125462        0.14141835942861
N           76.89131064253921       -1.40915982258688        0.08526524787448
C           75.50510718408677       -3.41635623066755       -0.17299926369373
C           75.51461644126931       -4.89296230197262       -0.28410299466887
C           76.37851963412331       -5.51384822462846       -1.18794924772393
C           76.37700258556269       -6.89821362156631       -1.31047932032018
O           77.19767617058386       -7.51135908220847       -2.19462908377012
C           75.51590418081393       -7.66368659508492       -0.52133497347465
O           75.54820109024358       -9.04283188033273       -0.66929979702866
C           74.68265240629265       -7.04768433024956        0.41102478432697
O           73.86974812453843       -7.79505027427122        1.21038379348419
C           74.66781381619978       -5.66157746035816        0.51609170446846
C           74.31187124209220       -2.73690406315277       -0.38690420930925
C           73.07470741049228       -3.36008184976401       -0.75064191024963
C           72.11826770657413       -2.40163348396075       -0.67529207337342
C           72.77709096785451       -1.19604551474681       -0.28344468186856
N           74.11857735631092       -1.39468200021650       -0.16372824331337
H           71.06798676336007        2.50174312495243        0.86866010428678
H           72.96730720993861        4.41020243640546        0.96643425833930
H           77.01051976511869        4.99033032319868        1.75739949031353
H           77.71958178156650        6.99570680446603        2.54800635608851
H           74.89097260286465        9.36285043361399       -0.29855683649334
H           73.36238531436567        7.25507613474858       -1.95068389014586
H           74.02690557260024        5.12133643699269       -1.33336170914424
H           78.06986606844329        4.45166868329509       -0.58407945535502
H           79.96216999996801        2.53550928724539       -0.60302309037048
H           79.92516465713331       -2.58377031210747        0.76206722015688
H           78.02801094429383       -4.49187107700117        0.62062128235217
H           77.03223285760149       -4.92713445714316       -1.82023546063172
H           77.05415247100805       -8.47062721888502       -2.13160502236045
H           74.65364744626866       -9.40655427235864       -0.70016418558779
H           74.15996580256984       -8.71847314905889        1.21053008480416
H           74.01886484344544       -5.19406148629787        1.24518461316490
H           72.95989833428355       -4.39518417514281       -1.02790954836429
H           71.06200181685703       -2.49009870502163       -0.87128724031933
