264
 energy: -507.975709436703 gnorm: 0.000937772819 xtb: 6.5.1 (b24c23e)
Ni          43.70425527614356        0.16649072692012       -0.48866048385882
C           40.31445382296246        0.20298615821719       -0.48741632184706
C           40.97681811712401        1.41248767289064       -0.45646460088401
C           40.31425763844180        2.68115796592416       -0.45169993133188
C           41.27442768515410        3.62000657637336       -0.28302088908387
C           42.52306543609495        2.92274928443869       -0.17744193250148
N           42.33427236959478        1.57221154291603       -0.32858527036700
C           43.73802562994194        3.53868869459326        0.09535016489573
C           43.75191920215342        4.99849207307716        0.35375662103710
C           43.04098308359991        5.53364248179670        1.42407370885284
C           43.05439535544328        6.90679045582247        1.66574710398577
C           42.27815077815080        7.41652536122688        2.82425830270298
O           42.36602262663636        8.74472624680471        2.98534041883888
O           41.62336055369224        6.72457148815015        3.56103382715223
C           43.77984065781006        7.75669292212838        0.83102132316761
C           44.48607217611952        7.22639488469459       -0.23724203632625
C           44.47523576976288        5.85931959111050       -0.47528426751127
C           44.94030955128216        2.84428687877663        0.12589113899052
C           46.20221502267429        3.44311889344804        0.43965607661785
C           47.14702401594849        2.49311081181766        0.23746924810864
N           45.10773516630849        1.52009986416365       -0.21094883512959
C           46.45949453609477        1.31402934883763       -0.18252316885647
C           47.11320665806404        0.14563749975606       -0.58571151207745
C           46.42384610631112       -1.02243213470209       -0.92351730039166
C           47.07379641072664       -2.22360299663931       -1.34112177974619
C           46.11137107807190       -3.17224378799570       -1.43966129370996
C           44.87544045242512       -2.54652037432744       -1.07855935316561
N           45.07450527931985       -1.21291546518544       -0.80319245904278
C           43.66532290632309       -3.22078138115370       -0.97861818362587
C           43.65245952290243       -4.68970983260457       -1.18020505719367
C           44.38432385834960       -5.52598972969538       -0.33430283035288
C           44.37193053214313       -6.90182016973084       -0.51696745818979
C           43.63268730409560       -7.45912414336108       -1.54688034764403
C           42.89945265514145       -6.63354853343459       -2.40057627718392
C           42.12132511867031       -7.26874656570539       -3.49372053906775
O           41.44414533917675       -6.39255592798671       -4.25005658279104
O           42.08319879735749       -8.45473013781479       -3.69983359259492
C           42.90951115949859       -5.25253104304360       -2.21569747616877
C           42.46590353113041       -2.57294434001518       -0.71148633023938
C           41.20273189819776       -3.23979287623174       -0.58456382237769
C           40.26077448920017       -2.27519830574862       -0.46398474681589
C           40.95005316041198       -1.02152517158153       -0.49734331566895
N           42.30421546382865       -1.21379257569962       -0.61091678535877
H           39.23083582626285        0.21502990210315       -0.49253397337079
H           39.24978812579138        2.81496204179142       -0.56006667865344
H           41.16105124208614        4.69082477402730       -0.23553328968877
H           42.48132528351102        4.88664526152674        2.09069812918681
H           41.83482967231571        8.99739792156173        3.75794352627738
H           43.78731194714030        8.82345555927849        1.01908168464327
H           45.04879999137407        7.88162328691686       -0.89249652724448
H           45.01948742729830        5.45255682228252       -1.32026544478773
H           46.33786886174192        4.45869769343414        0.77397552210239
H           48.21547222212885        2.56848925271661        0.35940126637896
H           48.13205290065221       -2.31500780521389       -1.52516744357989
H           46.21774121246322       -4.20294997146427       -1.73615678957621
H           44.95405785072259       -5.09210903358147        0.47980049101301
H           44.94125280815486       -7.53887116976962        0.15020033346278
H           43.61227556570181       -8.53163326238740       -1.70396559457134
H           40.96506909036006       -6.88415626932195       -4.93683404534432
H           42.35064672756041       -4.61272193785768       -2.88834523926053
H           41.06712837703503       -4.30908742454175       -0.58869093085871
H           39.19304952973816       -2.38284519028617       -0.35829104880169
Ni          91.59918805191512        0.20409777102538       -0.17528647504691
C           94.96735143006566        0.09256528221549        0.18237884006841
C           94.32930236318472       -1.03537864919186       -0.29140999973921
C           95.01476213379421       -2.22371889197184       -0.69863950270736
C           94.06440473668324       -3.11139817749370       -1.07371074683543
C           92.79610626912076       -2.47705811115693       -0.85911910906681
N           92.97202276057381       -1.18754036357303       -0.42240663008774
C           91.57122527803561       -3.11939719275051       -0.98603293401614
C           91.54903879180222       -4.54768816126185       -1.38292315844305
C           92.17992886608504       -5.51355692399533       -0.60418914263893
C           92.15946149586119       -6.85422763782233       -0.98683179268495
C           92.85322798129047       -7.83608797486067       -0.11551101187549
O           92.77289985887440       -9.09826669056925       -0.56064749911609
O           93.44176816309137       -7.55046067376016        0.89565960020402
C           91.50402399000498       -7.23776309449245       -2.15668281282671
C           90.87173274227364       -6.27822698764476       -2.93178577531544
C           90.89101693142041       -4.94435642414778       -2.54966382155620
C           90.36248724909846       -2.48755330064183       -0.72115288211506
C           89.10002385065494       -3.16178894957626       -0.69528521061992
C           88.15862321980221       -2.22084797216672       -0.44154509255089
N           90.19700024752220       -1.14745711567555       -0.45781813594944
C           88.84627101956951       -0.97460652043333       -0.32379640816635
C           88.19002237956876        0.25472704990094       -0.21366081041680
C           88.87747232095234        1.47153480762483       -0.16315681106680
C           88.22593559950322        2.74196966656046       -0.19275018008472
C           89.19793845435602        3.68045979079732       -0.09068907657053
C           90.43925988379500        2.97786737273798        0.03156185872276
N           90.23243422525071        1.61920624072131       -0.05637222959097
C           91.65666984359488        3.59257150288054        0.29067966657902
C           91.69868294342301        5.06709599199235        0.44544177152949
C           90.98874245709095        5.69888904532186        1.46845803518671
C           91.03594163008098        7.07868271097437        1.61276923168803
C           91.78855622444901        7.84352937978263        0.73742240293599
C           92.50293364387514        7.22315959616873       -0.28867155154633
C           93.29785444227122        8.07756400318534       -1.20645849571036
O           93.94659012769712        7.38734037655020       -2.15557259726318
O           93.36941011328840        9.27707647749250       -1.12619526123250
C           92.45931628553858        5.83785592535734       -0.43104339252247
C           92.83972653715226        2.87993729376335        0.44272036295265
C           94.08272481338486        3.46919990068810        0.84716378246922
C           95.00331851944640        2.47690341166467        0.85413706095611
C           94.32554184086207        1.28558662952480        0.44180820359910
N           92.99248238594001        1.53421396490248        0.22709379083648
H           96.04178498636207        0.05165780933716        0.31768592064503
H           96.08678600724893       -2.33986200115012       -0.70256039225835
H           94.19828118796465       -4.10973969322999       -1.45707698930337
H           92.68075760633211       -5.23679955126893        0.31708210264095
H           93.24933806476348       -9.67452209920649        0.05893784428199
H           91.49152797433614       -8.27944459431889       -2.45359464786773
H           90.36102093835252       -6.56914962789942       -3.84276356975499
H           90.40425771108431       -4.19698732764750       -3.16626639944326
H           88.96353516530230       -4.22124165520114       -0.83875737572538
H           87.09143211104917       -2.34252373296425       -0.34968126914158
H           87.16149351896078        2.88227481374492       -0.28978645240619
H           89.09265882456893        4.75303047001886       -0.09438788771674
H           90.40997181784734        5.10069133188821        2.16325584297041
H           90.48345336618533        7.55543940880277        2.41436381289345
H           91.83534836175004        8.92222441781124        0.83542183271924
H           94.43775768275680        8.01419692867751       -2.71115700237840
H           93.00744518966059        5.35826594577812       -1.23336512106535
H           94.21689308806275        4.50800936354326        1.10170907033106
H           96.05186152662534        2.52934944943715        1.10027616976504
C           52.30791148234307        0.19833012774956       -0.83416035824795
C           51.08198488810758        0.17496541573169       -0.76814879570407
C           49.73881885532263        0.15613955465560       -0.70289549743519
C           48.51672756680487        0.14559913397336       -0.64570015870347
C           53.64991371836311        0.23510277834486       -0.91176833786430
C           54.87035842877163        0.27797983466233       -0.98925999252363
C           68.27281581249675        0.34276395535404       -0.75250340387807
C           67.04474323600226        0.33308190208942       -0.77133653765841
C           65.70100415054912        0.33548338989687       -0.82142074289052
C           64.47950393556061        0.34869793244784       -0.89446754002993
C           69.61724223600802        0.36198328216866       -0.76801183396134
C           70.83983702961787        0.39540979700525       -0.80938736985107
C           84.21837385288066        0.32519590112399       -0.28981665016347
C           82.99295103453601        0.35051331161392       -0.36349567405374
C           81.65290329728325        0.38885242260987       -0.46834307291476
C           80.43559394100946        0.42166158927839       -0.58883974970540
C           85.56203156653686        0.29630613630179       -0.23807434429926
C           86.78523046703445        0.27409690462127       -0.21536387587842
Ni          59.67647783707337        0.42671145076010       -1.21697894776499
C           56.27037484763942        0.33349803495881       -1.07974403421686
C           56.94246183595690       -0.67821193276485       -1.77378999764320
C           56.27585896450098       -1.71273938824595       -2.49747763870952
C           57.24075449254232       -2.52533687212018       -2.99285752835230
C           58.49349280572883       -2.00339582324223       -2.53768603204206
N           58.29869457749098       -0.83695299135119       -1.83200318327500
C           59.71133276758728       -2.65326000225303       -2.68822312509928
C           59.74239120842533       -3.96844330956488       -3.37125436082018
C           59.01232957170770       -5.04558298625911       -2.87712550382695
C           59.04653856337382       -6.27946991992090       -3.52550199259120
C           58.24498196937682       -7.38912162737506       -2.94995982082825
O           58.35193809613407       -8.53759791366171       -3.63325766957921
O           57.55593032071767       -7.29064307033262       -1.96724282285082
C           59.81474949517892       -6.44295266156649       -4.67801803641900
C           60.54479740933729       -5.37246756242824       -5.17039883806095
C           60.51255350442727       -4.14537795331925       -4.52334658111263
C           60.90286750709578       -2.14182675979893       -2.18826044207649
C           62.14099242639539       -2.85912826731971       -2.18059473503909
C           63.07565848121855       -2.02155474728421       -1.66864679285067
N           61.07268726333442       -0.88481332944044       -1.65648814974871
C           62.40887626651379       -0.79284591261307       -1.37736898138995
C           63.07975064003923        0.37500474387643       -1.00117628899438
C           62.41215499566694        1.58730835954722       -0.79516682640808
C           63.08366521350855        2.82762911303245       -0.57320339615920
C           62.12159681670969        3.76118092233670       -0.37323473657080
C           60.86499440745013        3.07925901597584       -0.43944652048439
N           61.05619171753557        1.75061244156078       -0.74786873728702
C           59.64461158327039        3.65956616901124       -0.12147238865499
C           59.61327567572407        5.07991143739508        0.30299522508276
C           58.87894844050897        6.01435185105202       -0.43068984146290
C           58.84311769711967        7.34660275622683       -0.04343941516193
C           59.53404716285632        7.76085479708648        1.08300478126520
C           60.26621847831127        6.83513158341538        1.82781282331433
C           60.98793532686393        7.31789997359968        3.03239166527014
O           61.66405435711349        6.35483364984030        3.67464867782880
O           60.98259805835627        8.46006843895964        3.41413049725480
C           60.30590902713833        5.49826931114200        1.43692957229470
C           58.44773886334918        2.95382930131369       -0.14504201213315
C           57.20428589788465        3.47240238010428        0.33666646774347
C           56.26782886964654        2.51952165778992        0.10773607537031
C           56.93880676750073        1.42989225937516       -0.52594843888529
N           58.27848944832135        1.68233030506044       -0.64092394153108
H           55.20669141029477       -1.78838449426164       -2.61245110742194
H           57.12219933654175       -3.40348564349106       -3.60608778364703
H           58.42235243316817       -4.94226855061347       -1.97301643483115
H           57.80189692643975       -9.20843384892278       -3.19689391136827
H           59.83809309060761       -7.40177786791663       -5.18151689687617
H           61.14339180535487       -5.49219531775946       -6.06631187592576
H           61.07757101994244       -3.30893109314386       -4.91932722164941
H           62.26644634579832       -3.87684517364004       -2.51248130877542
H           64.12657565485281       -2.20095086528167       -1.50899084212600
H           64.15410055293708        2.95488680218673       -0.58267453247611
H           62.24395797563013        4.81629605150280       -0.19107194487814
H           58.34465954520952        5.69232330370107       -1.31754901421006
H           58.27326589395654        8.06174966776579       -0.62561631858768
H           59.51588752504058        8.79730000647258        1.40054981005019
H           62.10380163449817        6.74803334268386        4.44598386571888
H           60.86235049473878        4.77893460889038        2.02598569705217
H           57.07678544872330        4.43626810605169        0.80180532805215
H           55.21309118110479        2.54413619783333        0.32909197462265
Ni          75.64522631261627        0.53232040476750       -1.03935555352726
C           72.24080418766182        0.44193076318662       -0.89026706916427
C           72.91179572802758       -0.60023446837828       -1.53957267871888
C           72.24313881670113       -1.66173226592756       -2.22142566059518
C           73.20723341313540       -2.47716784569020       -2.71356909323065
C           74.46247598929483       -1.93238708182539       -2.29348026627432
N           74.26791970563774       -0.75145845507238       -1.61173226221568
C           75.68433813020552       -2.57186343086998       -2.45277020041855
C           75.72517572232677       -3.88739598462983       -3.13509231472026
C           75.02234456800322       -4.97825109424123       -2.63216329122993
C           75.06845829956212       -6.20979572052782       -3.28456133595320
C           74.29701369900671       -7.33554703221847       -2.69939254489458
O           74.41318403309339       -8.47982215289810       -3.38843024469436
O           73.62456132146713       -7.25339140311465       -1.70377595498486
C           75.82087820961951       -6.35675595749807       -4.44963590861135
C           76.52477035117163       -5.27261238909615       -4.95013650177880
C           76.48136413443797       -4.04822665409965       -4.29879588668985
C           76.87469144950502       -2.05191636473898       -1.95798239125319
C           78.11069772638358       -2.77208891616143       -1.93089489199265
C           79.03775867793972       -1.93904079181866       -1.39789674745478
N           77.04001219285838       -0.79401921375111       -1.42813625824866
C           78.37065002484951       -0.70700644155688       -1.12162399871394
C           79.04070189738735        0.46113099784437       -0.74435526735944
C           78.38030586876903        1.68631453197979       -0.59923367432455
C           79.05859651679542        2.92904216494263       -0.41571677351898
C           78.10154605723791        3.88175065811303       -0.29823754326077
C           76.83974212178934        3.20987258264138       -0.36851576151435
N           77.02562761912229        1.86537566274616       -0.60246114651616
C           75.61659734270236        3.81565603182938       -0.11382629154845
C           75.58456636325604        5.26004546371986        0.21966112323394
C           74.86775931169069        6.14739279225324       -0.58635702569552
C           74.83273775816421        7.50240969554082       -0.28843506353058
C           75.50743950728392        7.98711763285743        0.81958899950926
C           76.22098352858454        7.10913134988279        1.63673304775887
C           76.92684177297497        7.66739634219486        2.81783354792784
O           77.58471858848098        6.74537783235920        3.53508951022091
O           76.92441683721199        8.83273165114426        3.12150547249872
C           76.25889353434957        5.74900821844854        1.33623722013592
C           74.41676470350440        3.11430402493946       -0.11218454373000
C           73.17148610804314        3.66244963618966        0.33064993196193
C           72.23621805454246        2.69579461507048        0.16259930583071
C           72.90872154223977        1.56870576836990       -0.40015665907468
N           74.24840353213987        1.81446402117627       -0.52841533916366
H           71.17301451894136       -1.75087737022838       -2.31588815341251
H           73.08634013274407       -3.37224204102505       -3.30132881783529
H           74.44517393512716       -4.88793355733786       -1.71846955063633
H           73.88391586572700       -9.16220245150788       -2.94436361966475
H           75.85290102717008       -7.31368321797475       -4.95625951142764
H           77.11163300796701       -5.37961313464961       -5.85537411736561
H           77.02688617277755       -3.20124004920670       -4.69969901207838
H           78.23885887139609       -3.78964470289648       -2.26233533042126
H           80.08478331351927       -2.12245477247034       -1.21845370527065
H           80.13021051063414        3.04489033265711       -0.39667090399235
H           78.23107137979682        4.94366263236286       -0.16813388264541
H           74.34678864108558        5.76986693124784       -1.45914329087931
H           74.27677300459720        8.18007105732977       -0.92619955513523
H           75.49078690950667        9.04250559203049        1.06708112343077
H           78.01497597642827        7.18721434279411        4.28515018783224
H           76.79974699659196        5.06762857059969        1.98217707026844
H           73.04257018426630        4.65411290840240        0.73271064147582
H           71.18111077654821        2.73354281176304        0.38038619470561
