258
 energy: -482.034667827243 gnorm: 0.000395035020 xtb: 6.5.1 (b24c23e)
Zn          47.46993335877908        0.22662536976795       -0.59764668852790
C           44.08654912180047        0.16397884337365       -0.18337951080918
C           44.69903890834006        1.40730561850845       -0.08409978219073
C           44.01413099879573        2.64834257620421        0.14832242599372
C           44.95664161572116        3.62302414951802        0.17543606776361
C           46.23189647791547        2.98687169369973       -0.02731757588126
N           46.03900680811242        1.64657101964230       -0.19200868680273
C           47.47020416894433        3.63881582044769       -0.06845697502176
C           47.46968544593449        5.10750102211819        0.14947109009867
C           47.01845232829063        5.64648563528215        1.35093806601041
C           47.01633096247688        7.02644679797229        1.55136369650500
C           46.52429744100138        7.53917508147472        2.85442996867342
O           46.56557232471381        8.87604768468213        2.95485161854755
O           46.11988312651774        6.84342676010182        3.75074894255594
C           47.46614600124648        7.88016235530446        0.54411161436956
C           47.91563424198316        7.34634289229274       -0.65339969329795
C           47.91966097936452        5.97269846601525       -0.85089623849686
C           48.70869681146081        3.02802076674795       -0.29423923530248
C           49.98097700050069        3.69546725737615       -0.26715590001263
C           50.93020752067208        2.75736783384811       -0.51587133622155
N           48.91043423979772        1.69770795529237       -0.54718571394002
C           50.24931420496345        1.50824894977317       -0.69173015390266
C           50.88424376795606        0.28369846529868       -0.98158597775339
C           50.23995785128908       -0.95891661452764       -1.14715920547635
C           50.90446480119674       -2.18161236188810       -1.49081175748671
C           49.95317086119974       -3.14851765668343       -1.54591163830018
C           48.69823985910784       -2.52682467168848       -1.22376417163571
N           48.90839446293615       -1.19236545428746       -1.00014532305345
C           47.46245240044789       -3.18032878846366       -1.16474759888124
C           47.45690246862521       -4.64533744123356       -1.40655359978120
C           48.16294435134570       -5.50673387385528       -0.56370774049198
C           48.15503454401897       -6.87710233424880       -0.78444937526485
C           47.44419425235597       -7.40518081353580       -1.84909155268738
C           46.73500742479423       -6.55512455336434       -2.69929367702038
C           45.98459102345812       -7.15879070504612       -3.82823974634599
O           45.32845531703594       -6.26125666532571       -4.57903862949777
O           45.94973826585898       -8.33876520905365       -4.06821113992843
C           46.74211852631941       -5.17954821878885       -2.47664911577627
C           46.22907443719179       -2.57488544393950       -0.89439793236649
C           44.96735921295960       -3.25880821820330       -0.78404889015657
C           44.02617087150159       -2.32134413343085       -0.51038898311238
C           44.70131282425706       -1.05559884309212       -0.44031969740824
N           46.03395249301169       -1.24351381906147       -0.67080529225701
H           43.00972099135627        0.14325105340517       -0.04705980465348
H           42.94669698229011        2.74966499296280        0.26645811806489
H           44.80535842193125        4.68182224831105        0.31179953172671
H           46.67778884717833        4.99777299762368        2.15054053646528
H           46.22958951172949        9.12957010911513        3.82986422310466
H           47.46187709402358        8.95202902180321        0.70061976497539
H           48.26401376308364        8.00395035796462       -1.44186803582772
H           48.26069819821668        5.56275726935505       -1.79507696573167
H           50.12905267061131        4.74470744395885       -0.06810161210554
H           51.99884561094573        2.89124732247021       -0.57148125309343
H           51.96279555196200       -2.27854467815727       -1.67388287023095
H           50.08649784462394       -4.18905559389604       -1.79468736053458
H           48.70856992809502       -5.09705923758294        0.27901883379219
H           48.70487160658976       -7.53304904531402       -0.11915559973045
H           47.42681999194298       -8.47301647230508       -2.03556547534532
H           44.86610321456067       -6.73443229051310       -5.28970168277238
H           46.20211116682177       -4.52077406076887       -3.14645468737705
H           44.82585371671478       -4.32236221385145       -0.89113937024329
H           42.96745953501603       -2.46365417525656       -0.36016635605714
Zn          87.86050888255633        0.29742823113487       -0.57756273467298
C           91.26848171086998        0.20409228491594       -0.55829248175135
C           90.61792661957740       -0.99618029569657       -0.81703518226458
C           91.27039481057651       -2.24556284724977       -1.09386391291909
C           90.29564617207620       -3.16963261726266       -1.28105660794879
C           89.03424200877389       -2.49701636258737       -1.11219490315777
N           89.26514358682259       -1.17995702856955       -0.84288366617401
C           87.77244399645215       -3.09218327408845       -1.23024952877206
C           87.73654135827216       -4.55288584970121       -1.49338950107147
C           88.28495573457940       -5.44726659333261       -0.57832214557230
C           88.25048350525154       -6.81980252434269       -0.82131852261012
C           88.85019587844251       -7.72066062503588        0.19440047270095
O           88.76070261629957       -9.02102832745476       -0.12193091444518
O           89.37410159501108       -7.34553558178763        1.21215629903767
C           87.66580107127056       -7.30836734478265       -1.98975087835135
C           87.12095699829676       -6.42018533613123       -2.90373401253815
C           87.15376374404988       -5.05430250742829       -2.65975718478083
C           86.54352712863464       -2.43282437730228       -1.11685554991478
C           85.25297575048924       -3.05976016061642       -1.19595262273216
C           84.32344141977623       -2.08342254720997       -1.03564226705663
N           86.37318618287759       -1.09286354742395       -0.89259763844645
C           85.03536225213388       -0.85408787287107       -0.84456644855201
C           84.42601936851419        0.39993352759928       -0.63682839249545
C           85.10087629594166        1.61344346349046       -0.39552798331406
C           84.45669550630562        2.87971390360255       -0.20540681352058
C           85.43616254812689        3.79557706034973        0.00627366714090
C           86.68967156496505        3.09484556033126       -0.04591205511884
N           86.44829350337132        1.77156167374590       -0.30141886499516
C           87.95070484616095        3.68058937132026        0.11138627519552
C           87.98876329814637        5.13169954605512        0.42401841227839
C           87.40987549358641        5.61709549468936        1.59892061244068
C           87.44704579748566        6.97166501522322        1.89946772450187
C           88.06037989380474        7.85907841152107        1.03113960506914
C           88.64144281987923        7.38702867788561       -0.14695203412825
C           89.28892332517883        8.36925257301450       -1.05151154022271
O           89.82783661610199        7.81631057574481       -2.14858357937625
O           89.34139479206905        9.55441192904846       -0.84268945226131
C           88.60530740042286        6.02680022643171       -0.44768278546606
C           89.17961575857912        3.01873995300956        0.00102244600203
C           90.47394316941045        3.61742235305812        0.19652742403491
C           91.39872141375156        2.64452125744828        0.00234503839455
C           90.68189105065107        1.43735152115612       -0.30070162514337
N           89.34125172654349        1.69576847369373       -0.28976161101439
H           92.35366169426361        0.17411872537504       -0.55151237342551
H           92.33902237908192       -2.38465064281620       -1.14197370898236
H           90.41511607941396       -4.21355792810407       -1.52295601931412
H           88.73151254870886       -5.08644428692888        0.34182568435562
H           89.17318958021616       -9.53929725214644        0.58806223361301
H           87.64082467938610       -8.37486046242378       -2.17788912900258
H           86.66800887248810       -6.79262407743772       -3.81567722215310
H           86.73726976715200       -4.36492708634564       -3.38576754483741
H           85.08070270964234       -4.11401553131655       -1.34182625273758
H           83.24949386899520       -2.18154080546539       -1.03549105045328
H           83.39087603899469        3.04098371401178       -0.23745510226725
H           85.32199030896628        4.85520708010000        0.16921891760575
H           86.94104119757885        4.92222856897350        2.28677436364820
H           86.99669290640443        7.33242055307544        2.81721754968671
H           88.09880825973504        8.92011143397631        1.25041199228201
H           90.22842894020606        8.52132084624021       -2.68266179838479
H           89.04453888638081        5.66530746644023       -1.36995558956090
H           90.64826381674817        4.64853575364029        0.45925983211311
H           92.47273164941777        2.72362319856515        0.06489112953808
C           53.50323309594026        0.32356502063312       -1.19517835643714
C           52.28421897767915        0.30335238971978       -1.10772583212627
C           54.85026990217031        0.34625733270606       -1.27285703741811
C           56.07118112735540        0.37366693903640       -1.32678927730579
C           66.98265498486482        0.56891252842590       -1.38544286345702
C           65.76024464189548        0.55743351926975       -1.40579502951817
C           68.33116039436807        0.57508742667433       -1.35346546771902
C           69.55319296621663        0.57790191000945       -1.31545573288458
C           80.45204589344134        0.49591209958240       -0.76788402308293
C           79.23095099941891        0.51222730809926       -0.82242905354650
C           81.80010435562222        0.47000252125870       -0.71429959746497
C           83.02139108034834        0.44105213193782       -0.67310935855048
Zn          60.91472070282767        0.47678595206696       -1.40182291181232
C           57.47548735431540        0.40828299075469       -1.36673681449213
C           58.13745456268141       -0.74167273218585       -1.84196501560912
C           57.47825752402003       -1.91615655162259       -2.33129886452173
C           58.44847836860382       -2.79408228846118       -2.69341311542758
C           59.71073260409361       -2.16678612210726       -2.41709681336477
N           59.48456803208254       -0.91496827251641       -1.91074208951267
C           60.96696858535841       -2.73796595146955       -2.64789708518973
C           60.99072642625018       -4.12421417385056       -3.18025036079141
C           60.44737783481562       -5.17383928183587       -2.44501060180409
C           60.47403505689403       -6.47569714963828       -2.94376592246191
C           59.88086159293270       -7.55170207192699       -2.11087743579418
O           59.96610804303606       -8.76904759856798       -2.66725746159841
O           59.36530247917325       -7.37471629430775       -1.03681097751720
C           61.04505741913898       -6.73567576199115       -4.18956177463188
C           61.58466337052677       -5.69201474171361       -4.92483200869665
C           61.56032939814287       -4.39706090849767       -4.42624642815714
C           62.20392671114987       -2.12628939680940       -2.41695868921963
C           63.48559584911867       -2.74738381215708       -2.60282966643770
C           64.42714512372119       -1.83193802218618       -2.25787009429396
N           62.39003611972868       -0.85201225372332       -1.95185158047578
C           63.73051841967455       -0.64768982565716       -1.85095856475440
C           64.35565119373398        0.53902677328684       -1.41679320133412
C           63.69256013572893        1.70615430200755       -0.98562415812564
C           64.35032735377757        2.91285242683570       -0.57962758739233
C           63.37958823259518        3.79675797012285       -0.23336985658978
C           62.11910855840277        3.13303772776868       -0.41641377253102
N           62.34630272362073        1.86647563320105       -0.88469460861587
C           60.86356203159129        3.69994324942142       -0.17445789509364
C           60.84135762821319        5.08423142945495        0.36435018707912
C           60.26448050843297        6.12255681621330       -0.36985725493649
C           60.24385814856985        7.41682027045413        0.13158481818245
C           60.79404503143657        7.68966235935558        1.37272760685481
C           61.37118084190413        6.65984150480931        2.11742819338044
C           61.94632305181378        6.99182107851461        3.44501079832304
O           62.47407574600970        5.93591010108199        4.08125428459773
O           61.95149391383087        8.09612985895444        3.92603866007660
C           61.39593830592170        5.36160488184726        1.61191038153469
C           59.62684074721024        3.08084338596350       -0.38555511302569
C           58.34708512568859        3.65713669014366       -0.08159335509366
C           57.40552174039436        2.73718151892473       -0.41466202268628
C           58.10064631996819        1.58933599983696       -0.91722047855711
N           59.44031431960607        1.82045477417740       -0.88660099076947
H           56.40920499644475       -2.04288095111064       -2.39407130492742
H           58.32128321109979       -3.77627338147875       -3.11919442537620
H           60.01129921100500       -4.99264885386158       -1.46866291326632
H           59.55872492002219       -9.41220631183393       -2.06460741435863
H           61.06383747587067       -7.74739806990669       -4.57618751367455
H           62.02723246521904       -5.88617095148575       -5.89535526203768
H           61.97372973439793       -3.58369583396237       -5.01220416875075
H           63.64437082070754       -3.75905569656860       -2.93995880509796
H           65.49957427847822       -1.94453988742965       -2.26835055463819
H           65.41854649439622        3.06028010969869       -0.56987029705548
H           63.50443241006952        4.81239214184696        0.10609835222569
H           59.84267642400431        5.91280385742696       -1.34651970972472
H           59.79679983283239        8.21361589852962       -0.45194752690240
H           60.78502521419421        8.69437261125089        1.77997894269610
H           62.82509134185057        6.23498126285572        4.93577870295855
H           61.83428118928611        4.56151871836080        2.19664107659435
H           58.19023070577131        4.63492073425862        0.34466987590932
H           56.33412547500382        2.81962144351155       -0.32406648531772
Zn          74.39182162298515        0.55194442252039       -1.08293740257826
C           70.95687841427976        0.57525492249950       -1.26043541358259
C           71.61605085490312       -0.59386802882495       -1.69190979501425
C           70.95723443974182       -1.74977480688403       -2.22422595548867
C           71.92327719029066       -2.65763568874912       -2.51689873394191
C           73.18159622299110       -2.06793292516401       -2.15350071234705
N           72.95862331491401       -0.80734180924297       -1.66723121477741
C           74.43262315692341       -2.67905447744338       -2.28956114201694
C           74.45234346432159       -4.06659871869817       -2.81802844578384
C           73.81566204398567       -5.09684662701662       -2.13188150748641
C           73.83398307329628       -6.39808254980781       -2.63275922667385
C           73.13653620733277       -7.45246131201223       -1.85492947506129
O           73.20922131881994       -8.66895364977503       -2.41530982819803
O           72.55263892481970       -7.26012151721923       -0.81915263884360
C           74.49192176343516       -6.67729385536510       -3.83060947111267
C           75.12665620377358       -5.65338661380569       -4.51598951382798
C           75.10937682617555       -4.35902639609261       -4.01577570282643
C           75.66810364955258       -2.10265997254447       -1.97370731813765
C           76.93971551746583       -2.76467272229186       -2.05899626157886
C           77.88315485045820       -1.86965818425220       -1.66803720750713
N           75.86027931653575       -0.82628292144930       -1.51768054523549
C           77.19688950238850       -0.65736117347387       -1.33283979727681
C           77.82775887369282        0.52513675870380       -0.89556280400183
C           77.17257553718839        1.71876876224752       -0.53118555943521
C           77.83802033398625        2.91966733425746       -0.12104341117448
C           76.87278500393570        3.83453099203812        0.15265724799813
C           75.60725766053740        3.19586331425563       -0.07869898717963
N           75.82698493705614        1.91322669424080       -0.50439519153155
C           74.35445087434655        3.79638484188142        0.08757121977552
C           74.33818537996649        5.19373184311321        0.59058497890736
C           73.80531061283894        6.22164407489223       -0.19045820485274
C           73.79239776472762        7.52954294626969        0.27427476668031
C           74.30837413477003        7.82756427088534        1.52430481080297
C           74.84188686677331        6.80888023984327        2.31540643196783
C           75.38486982762744        7.16835199554209        3.64926234047632
O           75.87571584298760        6.12188349046413        4.32945109172250
O           75.39737683033063        8.28558466426640        4.09918170552424
C           74.85678477146992        5.49632958751380        1.84780622766636
C           73.11593006909069        3.20079088938903       -0.17466356210571
C           71.83571898952709        3.80925145047388        0.05661879556942
C           70.89149212654723        2.90840827285411       -0.31850836622493
C           71.58483551306409        1.74029489083154       -0.77443720258682
N           72.92595945253741        1.93916174271216       -0.67176493303053
H           69.89182325012492       -1.84494165299377       -2.36090788853993
H           71.79612101429164       -3.63677231018890       -2.94964556404817
H           73.31071412911267       -4.90132823501018       -1.19218247683595
H           72.73141600483063       -9.29711516391350       -1.84965428471745
H           74.50373853124181       -7.68840167846609       -4.21912170357682
H           75.63775624792200       -5.86242086583475       -5.44903504137251
H           75.59682412527846       -3.56048746664430       -4.56400817943181
H           77.08992721081854       -3.78765690368661       -2.36451982291848
H           78.94993710694258       -2.01357198722971       -1.60316125084298
H           78.90763246085567        3.04214684110914       -0.05900369843411
H           77.00585284765360        4.85541110151820        0.47257012164410
H           73.41273244084162        5.99247751336231       -1.17492040789282
H           73.37918974662814        8.31731257422140       -0.34531759921620
H           74.30631865322925        8.84353849304019        1.90267031002142
H           76.20847368679162        6.43920148293914        5.18465296673800
H           75.25955110493945        4.70533765534118        2.46932962380904
H           71.67957295043446        4.79400451530676        0.46675495367775
H           69.81902720290982        3.01642720845920       -0.28586977934663
