80
 energy: -144.656144094932 gnorm: 0.000717826192 xtb: 6.5.1 (b24c23e)
Fe           5.24223083688483       -0.03096828284665        0.01624772831269
C            1.82985343445185       -0.05685043120756       -0.05112031250259
C            2.50094497748401       -0.90184292788119       -0.91104816757143
C            1.84733369276398       -1.80236132787456       -1.81534603507339
C            2.82427300123718       -2.46213719480784       -2.48069923561397
C            4.07183320136898       -1.96327705046019       -1.98080435588842
N            3.86164052346399       -1.00450912402585       -1.02728040246513
C            5.30441386069569       -2.40678023116817       -2.41702111646985
C            6.51102993367096       -1.94303496568473       -1.93908040517918
C            7.78068799166485       -2.42441449898051       -2.39346413921822
C            8.72417047734508       -1.74478260558439       -1.69885173969215
N            6.67822447713491       -0.97289204785011       -0.98035040325118
C            8.02686271049358       -0.84937359352047       -0.82632908665365
C            8.67533106761685        0.03790522856201        0.04094413459015
C            7.98115209602234        0.91316906257942        0.88402550856388
C            8.63022020884946        1.82360156242764        1.77774011154105
C            7.65001115591469        2.48872970334079        2.43478121433117
C            6.40640585281129        1.97983849045786        1.93981285043257
N            6.62582197612288        1.01926335710330        0.98216167982403
C            5.17446025871149        2.40944195092036        2.38427430716041
C            3.96704099312070        1.92507786476049        1.92184252438088
C            2.69323107672025        2.37818879586609        2.39869893721461
C            1.75305414594754        1.68528394755489        1.71432298267799
C            2.45511741262907        0.81059814707559        0.82109785723699
N            3.80873254323851        0.96948423895353        0.95492272113444
H            0.74595288941657       -0.07635545101318       -0.06043373322171
H            0.77755064792324       -1.90145886436323       -1.91059912618452
H            2.73150104673645       -3.22102168927976       -3.24152325955921
H            5.32486553889109       -3.17420408566971       -3.18268934187142
H            7.91212293604786       -3.18606721609703       -3.14550918686057
H            9.79746618942701       -1.82724068311587       -1.75976119470521
H            9.69910575983479        1.92534604277327        1.87668592995955
H            7.74039638339209        3.25325488118512        3.19000199593579
H            5.15204680527445        3.17682132896152        3.14997608227311
H            2.55924215971867        3.13027562138997        3.16012672841637
H            0.67881821896134        1.74409850975189        1.79118224699482
Fe          23.84427417648462        0.00769609446624        0.03213380749801
C           27.25661188070343        0.07571855837556       -0.00445762223979
C           26.58424879284853        1.27878977078220       -0.07051890681566
C           27.23643945853620        2.55418428172150       -0.13303435233653
C           26.25846239276834        3.48901684044625       -0.17850164314121
C           25.01169233177223        2.78226654824816       -0.14366452342052
N           25.22336504909741        1.43158476521054       -0.08516979191489
C           23.77837599620211        3.40248484348386       -0.16677108748545
C           22.57255191622586        2.73638216801470       -0.12635886823318
C           21.30211611905203        3.39670900525256       -0.13906866029547
C           20.35975320065921        2.42537344444949       -0.08440846488086
N           22.40691975600363        1.37330795564016       -0.07122412325116
C           21.05850819962976        1.17670764688592       -0.04178600070228
C           20.41119134221264       -0.06394994807929        0.00175418131937
C           21.10654511624775       -1.27797128077714        0.03778660676129
C           20.45898090160664       -2.55356881829797        0.08699822417163
C           21.44029776418087       -3.48646245393237        0.12748516571481
C           22.68306824999370       -2.77544424739797        0.10394104092760
N           22.46204957953546       -1.42085500174387        0.04029681501416
C           23.91574621294317       -3.39081669222143        0.14460761595689
C           25.12241335397830       -2.72003797042180        0.12701323679163
C           26.39695381481074       -3.37473247371818        0.17405878562875
C           27.33609783970732       -2.40076806916611        0.13126490250546
C           26.63267016091011       -1.15348325665427        0.05862236299542
N           25.27927042323653       -1.36242580174694        0.05294119284128
H           28.34050287469183        0.09746222336116        0.00012479824737
H           28.30606862766734        2.69273474067706       -0.13830511613394
H           26.35007586098943        4.56250519398521       -0.22945239613595
H           23.75665926769553        4.48542450987815       -0.21558305142765
H           21.16953249767703        4.46606734910584       -0.18214126792882
H           19.28630976949552        2.52596737615891       -0.07490981773001
H           19.39029069135455       -2.69687596274541        0.09096731481820
H           21.35124601670769       -4.56026333284203        0.17274356110329
H           23.93939843041466       -4.47362694578586        0.19595146682482
H           26.53209516886547       -4.44322943990573        0.23247663080570
H           28.41044803456748       -2.49493991648770        0.14706305732837
C           10.07730566530496        0.04450119293525        0.06341004353259
C           11.30288767986332        0.02857574916909        0.06876841211704
C           12.64368908560469        0.01068937623020        0.06716583422674
C           13.87528473366572       -0.01937157939530        0.05737456809286
C           15.21107056025670       -0.04621985199257        0.04842392619790
C           16.44277206812292       -0.07248335960702        0.03719646647401
C           17.78353746632620       -0.08437633113032        0.02097733513439
C           19.00923298938122       -0.08489536266559        0.01267604204373
