266
 energy: -445.865116512459 gnorm: 0.000496107163 xtb: 6.5.1 (b24c23e)
C           36.33151234664494       -0.08709220396890        0.06435992981048
C           36.94290632534471       -0.96018825050487        0.95530460731995
C           36.29318838323439       -1.87944711875897        1.82541055885242
C           37.25614542071523       -2.53722720340049        2.53855529758559
C           38.52477961799237       -2.03236271874610        2.13544846184443
N           38.28540111967797       -1.09322519211402        1.17247257993399
C           39.78800929875258       -2.41484280790489        2.60398556447008
C           39.82194441634451       -3.43150575268342        3.68151949290124
C           40.48575352245156       -4.64639431427292        3.49242744449888
C           40.51616803707594       -5.60167606307866        4.49249418534178
C           39.89221536707118       -5.35429342329703        5.71808884864778
N           39.88753333571635       -6.32270181104879        6.70675924335176
C           39.22243615525649       -4.14376105824694        5.91386852539878
C           39.18831053838789       -3.19790423292193        4.90454226977206
C           41.00009901120620       -1.90773454854778        2.12852368373119
C           42.29713842171446       -2.26272774185394        2.67516373835262
C           43.21476520337146       -1.58204234700346        1.95708783331019
N           41.15130147889010       -1.01076002867846        1.11463005426384
C           42.47667425822198       -0.80491129515060        0.98092043546038
C           43.11099595705822        0.02628265608481        0.03430900074216
C           42.47315597157560        0.84905250145597       -0.91436353855071
C           43.11720267227507        1.65577007542140       -1.88907189270640
C           42.15007680092007        2.30966656243507       -2.60153806451602
C           40.88452973306875        1.92952446379578       -2.07581910355753
N           41.13213099826184        1.03728807882002       -1.06521670543155
C           39.62258729637523        2.35561774954807       -2.50560358699871
C           39.58797775916154        3.36360890960691       -3.58990540031633
C           38.92850984126403        3.09448924712071       -4.79227216411716
C           38.89597163206029        4.03147183880967       -5.80941453785416
C           39.51359911347146        5.27340530413025       -5.63940745409259
N           39.51611811872713        6.19828368795170       -6.66858921384583
C           40.17938340428135        5.54903980465445       -4.44218831531643
C           40.21530012952974        4.60252343437919       -3.43380124166156
C           38.40799595550478        1.89532175286926       -1.98279850265272
C           37.10192044094627        2.38866186872080       -2.38993248486215
C           36.19143664215233        1.69905708113282       -1.67271277598826
C           36.94034503775732        0.79554552489242       -0.81809888476326
N           38.27177774953327        0.94896863904212       -1.02410628464567
H           35.24611605808558       -0.10295112245112        0.06548595824148
H           35.22501849627753       -2.01615202929736        1.88323962411053
H           37.10609868508655       -3.31213664856773        3.27268210013809
H           39.01038629467704       -0.57652093988851        0.68596483272342
H           40.96463949635854       -4.84963322562775        2.54087827563443
H           41.02517776869895       -6.54535872677602        4.32947745240130
H           39.72479429688090       -5.97854657995742        7.63956606506056
H           40.63387089740384       -6.99678971484276        6.64616910414578
H           38.73378933625504       -3.94682451631993        6.86189497889806
H           38.68364549297378       -2.25262339400812        5.07260533990829
H           42.46166193692557       -2.92930923869944        3.50625170685901
H           44.28774291675929       -1.58159364445357        2.06443637205161
H           44.18499123393802        1.71627376574416       -2.02491478950715
H           42.29786996580272        2.98608353262485       -3.42747067875599
H           40.40974934997636        0.57828911054121       -0.52012142111993
H           38.45609799085793        2.12906024999782       -4.93683957727634
H           38.39057470442837        3.80593318562276       -6.74214802876166
H           38.77375292133588        6.09035791921036       -7.34106103816490
H           39.67390284873908        7.15204552317654       -6.38508027826408
H           40.66351856336687        6.50981989202994       -4.30508256337425
H           40.71619985950439        4.83338288587692       -2.49985440316384
H           36.92896205718087        3.16798631432081       -3.11469877772998
H           35.11568923264319        1.77977222527293       -1.69051881257675
C           98.81051284774404        0.05123328286975       -0.10426622847834
C           98.19686799536683        0.70988001014423       -1.16234935338263
C           98.84457718971177        1.35028370462215       -2.25531196961294
C           97.87942000154243        1.88218537696797       -3.06411953793279
C           96.61132683449775        1.59315700092988       -2.48526416992256
N           96.85336320230941        0.87657744465596       -1.34752027077408
C           95.34621743418137        1.94434681294264       -2.97287639666893
C           95.30919921698664        2.75727342952889       -4.21137704088925
C           94.65978819260380        2.28418293684654       -5.35446048938682
C           94.62562244368077        3.03747256748212       -6.51425275817953
C           95.23117448670658        4.29623257104404       -6.55124205870797
N           95.23212918002859        5.03614024971249       -7.72087766302586
C           95.88694129781773        4.77469298173679       -5.41399903563811
C           95.92497940374174        4.01033252283086       -4.26124027712947
C           94.13529297298409        1.58476507664683       -2.37586615980787
C           92.83529790651370        2.01425959925494       -2.85823621316188
C           91.92001517603363        1.46699676927617       -2.03147152891665
N           93.98768489708118        0.81101982396187       -1.26441262376739
C           92.66234423001137        0.71436254343517       -1.03930690875874
C           92.03060669230386       -0.00587931490575       -0.00401421666216
C           92.67080506057846       -0.72032761147890        1.02710652424483
C           92.03007544026832       -1.47531577128804        2.04448996937574
C           92.99959158312964       -2.00583270129623        2.85019244935613
C           94.26333309030963       -1.58134579722923        2.35485533186221
N           94.01225897281751       -0.81489658813544        1.24658319681005
C           95.52685829494533       -1.89271105160502        2.86981090492436
C           95.56598205497053       -2.70881401286870        4.10495479264865
C           96.22962827392774       -3.93852388108765        4.12505768780333
C           96.26682291377305       -4.70660438582388        5.27493157488090
C           95.64969865031819       -4.25125734299428        6.44307533071386
N           95.65173949838059       -5.03396506475900        7.58408002591306
C           94.97985400460884       -3.02497708370520        6.43053467664103
C           94.93932041038029       -2.26763459402481        5.27344173935260
C           96.73965607301845       -1.48798547150139        2.29892563688891
C           98.04670347363654       -1.76122489278735        2.87517047496357
C           98.95509299401446       -1.22058266193442        2.03766139398797
C           98.20394958354235       -0.60557500779437        0.95829450973013
N           96.87316162512231       -0.77768574677481        1.15405404660155
H           99.89593662736716        0.05724363546292       -0.11689103453285
H           99.91304151819354        1.38598368128570       -2.39719190083141
H           98.02770515495556        2.41903203773264       -3.98703238477653
H           96.12949606037665        0.51580701327034       -0.73501195919710
H           94.19514815600289        1.30445402905768       -5.33656662242068
H           94.12771304986798        2.65448715191211       -7.39834021561377
H           95.37901431212866        6.02540080583249       -7.59887940595698
H           94.49271992215488        4.81148175590657       -8.36734738753398
H           96.36144549110665        5.74969238402553       -5.43717860761660
H           96.41851005954982        4.39845492424288       -3.37677754036025
H           92.66708812596242        2.66031532831853       -3.70463285694091
H           90.84594523026148        1.55732517389027       -2.06274671008225
H           90.96284935572997       -1.59781818424864        2.13577030193765
H           92.85455443230724       -2.64596808560942        3.70503259524641
H           94.73268562644257       -0.39266114109001        0.67007871148714
H           96.70176393370993       -4.30441884020295        3.21988692576535
H           96.77549407573532       -5.66448465417058        5.27422963390555
H           96.39613482285370       -5.71081042264344        7.63604991322518
H           95.49364872299299       -4.53469902030132        8.44468829534914
H           94.49622521031662       -2.66734346890565        7.33302590358520
H           94.43532743000647       -1.30721178115365        5.27900042922164
H           98.22157373296245       -2.28216623708417        3.80284018022761
H          100.03071972751179       -1.21305479961696        2.12151327628891
C           44.51569849609152        0.04379948837358        0.02373711202251
C           45.74068606972148        0.05600555822286        0.01125088411377
C           47.08262271939267        0.06825053062961        0.00152706102064
C           48.31370846226461        0.07599297365426       -0.00780155792366
C           49.65092260868701        0.08420557595005       -0.01635701953155
C           50.88221293680445        0.08742171841454       -0.02361008596323
C           52.22401639168886        0.09005253333035       -0.02641260431729
C           53.44928112311560        0.09036491264456       -0.02879426832853
C           63.10383211467324        0.01382134936596       -0.00284970000130
C           64.32923843905166        0.00317058314508       -0.00555233257136
C           65.67046537043653       -0.00490381516306       -0.00462217972409
C           66.90193565437923       -0.00900164102991       -0.00590213130865
C           68.23856285206065       -0.00989575311700       -0.00556746295191
C           69.47005568030966       -0.00725576124493       -0.00550574979728
C           70.81131424598097       -0.00321417340901       -0.00274731475808
C           72.03676055635211        0.00349295274224       -0.00184809655084
C           81.69216752900212       -0.01837993669847        0.03134635598986
C           82.91747317863765       -0.02644223518393        0.02931801213104
C           84.25924275907843       -0.03481786453776        0.03193330851121
C           85.49047340299003       -0.03892329341479        0.03363257377287
C           86.82772359053369       -0.04008398338684        0.03315024970266
C           88.05890861669509       -0.03700639442083        0.02998966011834
C           89.40091068260467       -0.02979031116707        0.02355412022069
C           90.62589578092768       -0.01933733905770        0.01131861451950
C           54.85308217706443        0.08754629585386       -0.02374243836591
C           55.47228733947978       -0.23186607022128        1.20111605238089
C           54.81455880819780       -0.58294863391734        2.40770411739360
C           55.77165042373856       -0.78759322330077        3.36445522062157
C           57.04175041309727       -0.55706486681117        2.77069047378355
N           56.81033094526716       -0.23722508703394        1.45910033507140
C           58.29604961740083       -0.64378584373330        3.38950299880105
C           58.30190001189471       -0.94630516101601        4.84001968632067
C           58.95886156071531       -2.07895977593040        5.32806602294715
C           58.96846371012487       -2.36599714461395        6.68115287835376
C           58.33027915263113       -1.51146280780364        7.58414467006731
N           58.30683974448991       -1.81412204887528        8.93371873474237
C           57.66599406726372       -0.37973856547690        7.10380440124418
C           57.65240103774514       -0.10577891229471        5.74780173519503
C           59.52348928920305       -0.46788089361875        2.74702690478583
C           60.80489992069742       -0.49118036553953        3.42864871948896
C           61.74696144841693       -0.30808077762851        2.47985733639315
N           59.70724638266987       -0.24611789128715        1.41575674177814
C           61.03882067611377       -0.16055230505562        1.22442484182083
C           61.70070916611769        0.02962727641082       -0.00608330124739
C           61.08070802907451        0.24014409540266       -1.25377221676423
C           61.73678939077236        0.39257135598405       -2.50189415897383
C           60.77966766817551        0.60440853542465       -3.45695328191607
C           59.51136497655673        0.59787315418101       -2.81617761929079
N           59.74368158194905        0.35997218840343       -1.48737867487816
C           58.25811087163099        0.78733065876543       -3.41360113108900
C           58.25652469219950        1.09266065694621       -4.86351954471663
C           58.92924999386544        2.21353317467741       -5.35720339261574
C           58.93036537407522        2.50217145355789       -6.71016379482207
C           58.25755831373799        1.66690384317936       -7.60594299714501
N           58.29872201362882        1.92356655201211       -8.96466863585454
C           57.59314253859658        0.53682919871546       -7.12184040537818
C           57.58845702573114        0.26126424685092       -5.76629665030387
C           57.03111782472622        0.70882441329375       -2.75083834699310
C           55.75165404827107        0.97925430158156       -3.38077518031018
C           54.80935903369964        0.77964239360746       -2.43544690329743
C           55.51550001176965        0.40079205662740       -1.22829827640751
N           56.84663254402312        0.38021044901654       -1.44217091671115
H           53.74601598510592       -0.67132912845897        2.51992903427277
H           55.61277222975142       -1.08387625447998        4.38838797859817
H           57.53736213964538       -0.04153068712791        0.77912266841608
H           59.44898934771217       -2.75172727061986        4.63292419387596
H           59.47271239978556       -3.25402970130417        7.04624395004000
H           59.04611817409671       -2.42186065939917        9.24841200881120
H           58.13294079219845       -1.03215127896106        9.54449918538976
H           57.16587242030353        0.28556676386607        7.79914024588127
H           57.15224662323132        0.78606405247260        5.38604212257439
H           60.94393332778317       -0.61386978819320        4.49054372930577
H           62.81822658128493       -0.26252186752415        2.59428025569966
H           62.80408716061792        0.33891317701316       -2.64396031279640
H           60.93751889044789        0.74091071066725       -4.51425011937016
H           59.01779174391505        0.27784563810746       -0.78342189377557
H           59.43754607630117        2.87802543693283       -4.66689876105599
H           59.45005731811785        3.37944498495787       -7.07968230599464
H           57.55541776032791        1.50584048374657       -9.50119844482538
H           58.49448563634329        2.87992764935635       -9.21339981134405
H           57.08120635818536       -0.12297197498253       -7.81375754723991
H           57.07947641197399       -0.62348968220055       -5.39998633432303
H           55.61436131580698        1.29447338773019       -4.40245970604103
H           53.73915424584217        0.88215226127496       -2.51893419097042
C           73.43996564470525        0.00957253140082        0.00525771789891
C           74.06011469576518       -0.29558583851918        1.23312233550305
C           73.40373880133596       -0.64147671100764        2.44184269021973
C           74.36157799361682       -0.83349570294333        3.40036691030127
C           75.63071839238178       -0.60065574803287        2.80521941266702
N           75.39797578244954       -0.29148541344267        1.49131038876436
C           76.88503934683287       -0.68009076067472        3.42469672393553
C           76.88679645016921       -0.96964475811860        4.87795207309998
C           77.53687465325810       -2.09996820764310        5.38003918016268
C           77.53347317200792       -2.37684574151584        6.73536465482086
C           76.88875418520904       -1.51453621851751        7.62621099532626
N           76.84918871075956       -1.80905141644954        8.97736329971784
C           76.23335370354192       -0.38367949776601        7.13193749651984
C           76.23280467168428       -0.11985811977697        5.77392558231831
C           78.11248516420625       -0.50856297546052        2.78087900725325
C           79.39432173636054       -0.53328858440893        3.46148326807546
C           80.33590183082254       -0.35261767569793        2.51172545545923
N           78.29540296732411       -0.28894270597917        1.44925025033169
C           79.62711680325660       -0.20380974250669        1.25670891077566
C           80.28839752242844       -0.00611489099268        0.02715071384896
C           79.66843250467693        0.21060454135514       -1.21948632096159
C           80.32471041962134        0.37822952311207       -2.46564628174459
C           79.36691536948358        0.58670247407951       -3.42086343274448
C           78.09781244126707        0.56210742879628       -2.78232162123874
N           78.33052687105219        0.31942999101619       -1.45448771121382
C           76.84313534433871        0.73779770129777       -3.38115429130659
C           76.83573888186983        1.04634772318145       -4.83048476960387
C           77.48678149697449        2.18020705345068       -5.32319951973922
C           77.47097319241091        2.47682696273547       -6.67444727289045
C           76.80273631688220        1.63685483637898       -7.56923560362935
N           76.82365420992038        1.90452047723599       -8.92622421577843
C           76.16299215154957        0.49201406725730       -7.08655571536946
C           76.17502505813319        0.20844858516523       -5.73278030987107
C           75.61622684663884        0.64391322226457       -2.72060143393298
C           74.33483555010716        0.89992219030772       -3.35284264503471
C           73.39324633147018        0.69079237963460       -2.40900315131278
C           74.10165901092563        0.32118874977807       -1.20034611377978
N           75.43294935912131        0.31410396411871       -1.41182616614638
H           72.33569324163904       -0.73552819582275        2.55418666558064
H           74.20382820914122       -1.12346389108157        4.42626346274400
H           76.12402089573882       -0.09625191401269        0.81015552218243
H           78.03069061143147       -2.77965594441486        4.69432383708777
H           78.03143368804126       -3.26380376238254        7.11154352052908
H           77.58399596065246       -2.41593040558774        9.30393807075217
H           76.67071074813482       -1.02256086978555        9.58105939868974
H           75.72874115716857        0.28813268270905        7.81770473654657
H           75.73821919258521        0.77046323139631        5.40089393076094
H           79.53390151224225       -0.65603855201289        4.52330935360228
H           81.40733422394034       -0.30885249903262        2.62530660619045
H           81.39275481058394        0.33685808191853       -2.60629091269461
H           79.52462488287091        0.73255704898866       -4.47696079242408
H           77.60437851817335        0.22514808242282       -0.75229597459092
H           77.98990722663616        2.84912899003147       -4.63340910651624
H           77.97235929096524        3.36502829013242       -7.04316994555488
H           76.08228393574367        1.47694106841818       -9.45768735225257
H           76.99900757587238        2.86607006216612       -9.17000036460461
H           75.65554945745023       -0.17185867736200       -7.77787420491813
H           75.68368732470911       -0.68654011239899       -5.36722135773790
H           74.19530310947583        1.21320705019313       -4.37478468968111
H           72.32218629577724        0.78203396180516       -2.49432432880869
