192
 energy: -336.140929047168 gnorm: 0.000801287645 xtb: 6.5.1 (b24c23e)
C           25.42715498586642       -0.01531863099600       -0.12844554311227
C           26.02902146097234        0.99373150010284       -0.87159529918629
C           25.37892741990909        1.99612562029335       -1.64287525994508
C           26.34459784961787        2.78149975351241       -2.21056866568620
C           27.60994090371436        2.28094781880448       -1.80185484163403
N           27.37412209464524        1.20697384391817       -0.99831414852971
C           28.87614783718764        2.78505702032883       -2.14921057056612
C           28.89608972020833        3.91242407099631       -3.00020191558794
C           28.91000861826131        4.87875548251701       -3.73411251484516
C           28.93746283395747        6.00546828588506       -4.58723517805602
C           27.75975935159936        6.54713171365963       -5.11524567145083
C           27.84316156714499        7.65032519445774       -5.94589130881131
N           28.99542836069582        8.23042491915719       -6.27171198324913
C           30.11942663660188        7.72158815755753       -5.77364613119028
C           30.14532923001202        6.62117516481955       -4.93571202732027
C           30.10662355341852        2.26039597527381       -1.72169425115657
C           31.38722934259902        2.81761689374318       -2.11077851408174
C           32.32934992566625        2.05604810452753       -1.51583322163315
N           30.28246874376562        1.18870143969867       -0.91068102225154
C           31.61828249770053        1.03817645096683       -0.76664397105097
C           32.27106529140418        0.04938453492594       -0.00652066021414
C           31.64326750070531       -0.96432824224242        0.74369271073090
C           32.28699510264441       -1.96776101976338        1.51324599732618
C           31.31703928222137       -2.75359427828821        2.07521522157974
C           30.05622289489633       -2.24919306301841        1.66344765134450
N           30.29991115290541       -1.16977320893026        0.86294347804476
C           28.79136485488494       -2.75728942248218        2.00775823530100
C           28.77240814511425       -3.89201112561272        2.84724443837329
C           28.76116927381475       -4.86974647832234        3.56632183570318
C           28.74397376699849       -6.00891137414443        4.40252928689091
C           29.93220252418825       -6.60912320825760        4.83610367883804
C           29.86104511632177       -7.72335429388657        5.65289856093507
N           28.71093877248202       -8.26015424106201        6.05260117236939
C           27.57702373752828       -7.69554500687898        5.64475976433982
C           27.53853930419063       -6.58021994530484        4.82726730188752
C           27.55974162301600       -2.22807429297631        1.58196351794757
C           26.27262106493583       -2.78270238698890        1.96363158172642
C           25.33702991460228       -2.01590863570735        1.36740687119259
C           26.05590942018663       -0.99638789020031        0.62320013627952
N           27.39706536617068       -1.15834610619905        0.77848025988463
H           24.34211567109206       -0.02927948975491       -0.14563698449053
H           24.30974212118424        2.09356440983583       -1.74304471777928
H           26.20353435989713        3.63361033331734       -2.85602207595621
H           28.09470272873085        0.64523422065354       -0.55742204134362
H           26.79970015152766        6.10615493084075       -4.87564719039453
H           26.94542486172422        8.09082059212501       -6.36994108984325
H           31.04156794704119        8.21930271335740       -6.05952340199443
H           31.08372618857249        6.23930945161540       -4.55251989692163
H           31.51797783606627        3.67435136552814       -2.75237207066409
H           33.40236557198755        2.15114298211528       -1.56227209336656
H           33.35521579694763       -2.06855106334662        1.61759704345992
H           31.45487715446794       -3.60770771761651        2.71846616402207
H           29.58215301624868       -0.60556670912822        0.42016973983412
H           30.89078479511885       -6.20463973998768        4.53420382215313
H           30.76709303119304       -8.20905221717321        6.00381677406769
H           26.65708529374778       -8.15882763528381        5.98964259784878
H           26.59228961959504       -6.15251494139996        4.51863367999747
H           26.13680589842822       -3.64133658785510        2.60192346711907
H           24.26277731880933       -2.10513144663084        1.40700520777002
C           69.51220718698740       -0.12796918001833        0.00098515694601
C           68.89986375774889       -0.96805966283105        0.92403398759570
C           69.53920523311957       -1.84280337091578        1.84508742650092
C           68.56536781939788       -2.48196277876592        2.56256544045319
C           67.30564887099797       -2.01527988086770        2.10008887742556
N           67.55276500813892       -1.10732294253939        1.11561354674594
C           66.03436606037097       -2.40220892616325        2.56059693008983
C           66.00190753170044       -3.36443541933911        3.59428964545807
C           65.97486198313143       -4.19366971735106        4.47981660406607
C           65.93078993571191       -5.15935970436871        5.51106597335856
C           67.09987173947692       -5.74526861363869        6.01001927632563
C           66.99975975609580       -6.68669109232087        7.01883692981772
N           65.83909757357047       -7.06763560000382        7.54605839512735
C           64.72320439127506       -6.51461500259356        7.07777657420325
C           64.71400561656793       -5.56583195616551        6.07109766635439
C           64.80986878123450       -1.91344727687024        2.07715190797750
C           63.52383982886715       -2.34408603984143        2.58934208775844
C           62.58988699634124       -1.66952058792364        1.88638840809612
N           64.64521636740169       -0.99936698619595        1.08984268233407
C           63.31134377037727       -0.83086776133448        0.94876812916201
C           62.66830587449588        0.02137450268012        0.03090673931217
C           63.30618530591295        0.85975531829521       -0.90435803382396
C           62.67310358965645        1.72466097141482       -1.83415018646139
C           63.65134871897860        2.35939201774967       -2.55140787478872
C           64.90677140736680        1.89811494690492       -2.07725733578960
N           64.65161307069727        0.99537049251932       -1.08463362418871
C           66.17703851557670        2.28982914753545       -2.53515215307332
C           66.20843206152394        3.24062551586615       -3.57807878606211
C           66.23089105321777        4.05739357786099       -4.47560518314151
C           66.26114281427465        5.00736085389986       -5.52150035921053
C           65.07989915207385        5.50866486523540       -6.08133564054449
C           65.16399503328778        6.43560126417731       -7.10482356268266
N           66.32029710468447        6.88061807324771       -7.59019810460011
C           67.44765658376937        6.40895476154460       -7.06345582695575
C           67.47319160787957        5.48053254929231       -6.03822109733886
C           67.40298390833642        1.80926250417694       -2.04067688788343
C           68.69582091897146        2.24137175709899       -2.54252717904622
C           69.62326185682407        1.56612845467542       -1.83351573275600
C           68.89376846846075        0.72375617470696       -0.90172113991832
N           67.55442965533909        0.89988969011899       -1.05757016092719
H           70.59724153254442       -0.14908740479778       -0.00736438221068
H           70.60714676129250       -1.95957334889075        1.93748274101140
H           68.69726538681579       -3.21272205785063        3.34436180745477
H           66.83824966940475       -0.60633547397967        0.59824293355876
H           68.06633497142418       -5.46410821246234        5.60943875648512
H           67.89059961100777       -7.15788693401743        7.42420838088252
H           63.79371557755900       -6.84854343735409        7.52987459314589
H           63.78163334791572       -5.14154292353870        5.71888767335009
H           63.38406796133628       -3.06516868732622        3.37877326124046
H           61.51618802235017       -1.71621439064542        1.97295033589523
H           61.60598675316198        1.84032251593982       -1.93441320327368
H           63.52269847510245        3.08372464086548       -3.33950239257957
H           65.36343678891141        0.49833985336832       -0.55944449328017
H           64.11662047223972        5.17321686083658       -5.71634746041479
H           64.26357076701356        6.84100113000365       -7.55741979580470
H           68.37295161272964        6.79346689498162       -7.48281464103231
H           68.41445221020919        5.12288124412741       -5.63864205624690
H           68.84076759525792        2.96393590841752       -3.32994036926764
H           70.69833394438039        1.61078340465274       -1.90948871913222
C           33.67660185271595        0.05900368829454        0.01372150661589
C           34.90097059787055        0.05780870804137        0.03075529984762
C           36.24366410279899        0.05358664624881        0.04570167884108
C           37.47405608744246        0.04275904594360        0.05858970811799
C           38.81192990885663        0.02806341341599        0.06860744764919
C           40.04241821945456        0.01186127359054        0.07725139123252
C           41.38494737178041       -0.00655275380503        0.08412079697390
C           42.60944239077285       -0.02567346094756        0.09036823754835
C           52.32994116263591       -0.00064688499764        0.07336736329921
C           53.55443083812249        0.01948810379329        0.06996562341829
C           54.89677457822295        0.03947108627830        0.06333119646280
C           56.12745607530727        0.05395778734714        0.05457982092485
C           57.46529204732172        0.06198181290521        0.04811319170544
C           58.69589462589146        0.06347093035235        0.04338316357638
C           60.03853545173157        0.05731518082212        0.03853128147848
C           61.26299493311155        0.04415246048568        0.03550819791188
C           44.01419326504771       -0.04350460295382        0.09138987691046
C           44.64129525249906       -0.27754859347235       -1.14868534018808
C           44.00087249627704       -0.51203834613522       -2.39176275248860
C           44.97475762737863       -0.70652616280156       -3.33505746608102
C           46.23295557968354       -0.59222332488890       -2.69066558749314
N           45.98576287212833       -0.33259175136889       -1.37342531828888
C           47.49971992331625       -0.71895627826697       -3.28997244864205
C           47.51246391895997       -1.00990662883106       -4.67246117689179
C           47.52186547884074       -1.27006597984992       -5.85776242566728
C           47.54321207694800       -1.57695653121686       -7.23736266052762
C           48.75034217958346       -1.78527249401097       -7.91464362165429
C           48.71800059282003       -2.08688947166649       -9.26436252384906
N           47.58845543356032       -2.18933258904841       -9.96003720357418
C           46.43688013307683       -1.99169662237662       -9.32369769900600
C           46.35970692954826       -1.68648204903306       -7.97652748927964
C           48.73574634397369       -0.58171796195130       -2.63915777645737
C           50.00970462946704       -0.70336839291872       -3.32063830727915
C           50.96167191778984       -0.50212197114360       -2.38534657289390
N           48.92483390254812       -0.31681850033399       -1.32361411693859
C           50.26308973421479       -0.26325787511009       -1.13781645540589
C           50.92547694437147       -0.02276796838237        0.08051364337411
C           50.29847190343458        0.19245802944864        1.32405661469981
C           50.93887773912389        0.42125324542883        2.56818668438517
C           49.96502057828070        0.57488314983271        3.51903304308632
C           48.70683974858646        0.44477074050709        2.87753229102880
N           48.95407590321940        0.21477195730462        1.55478708564297
C           47.44017393181470        0.53814377662579        3.48307377786029
C           47.42722514028445        0.77935449985210        4.87509410016509
C           47.41627409143345        0.98696778530957        6.07070483576064
C           47.39265383827551        1.22775066873702        7.46336016550681
C           46.18262610606783        1.33685365310662        8.15885797707266
C           46.21195959339142        1.57636532269081        9.52102931771199
N           47.34131179460972        1.70999260435864       10.21195800199100
C           48.49566606250463        1.60780924962951        9.55811054280636
C           48.57594361080720        1.36971468417235        8.19760795151005
C           46.20400567876627        0.42045960793915        2.82855336437140
C           44.93001749800307        0.53972979900877        3.51045155980860
C           43.97788057398044        0.38262721019246        2.56693214727159
C           44.67637723288317        0.16543491920050        1.31541847020163
N           46.01483840848802        0.19357172099630        1.50602170556349
H           42.93290136640675       -0.53033346281976       -2.53723121289212
H           44.83996840310905       -0.90999716975838       -4.38512575000716
H           46.69833741527795       -0.20172992540098       -0.66315570052110
H           49.69309702689092       -1.71176556773934       -7.38630417927731
H           49.63937807669551       -2.25443960167531       -9.81456189285396
H           45.53454423709132       -2.08315965548472       -9.92134586501836
H           45.40000869391571       -1.53409178728418       -7.49776596464767
H           50.12986499929115       -0.91211578354416       -4.37162850977237
H           52.03372024061684       -0.51119654340374       -2.50013666430930
H           52.00682066846220        0.46099800944773        2.70968238049364
H           50.09967542819167        0.76249529905293        4.57207265068119
H           48.24158244468812        0.08010560260262        0.84516198191837
H           45.24002789136760        1.23487959937978        7.63483478923409
H           45.28835064750798        1.66525493867790       10.08572426629788
H           49.39766296489398        1.72188312866189       10.15245287592020
H           49.53776299554329        1.29401757427066        7.70486524953288
H           44.80989251034594        0.72015766898834        4.56670057332306
H           42.90577730334302        0.40478904263319        2.67920643012606
