195
 energy: -385.473844678654 gnorm: 0.000755518064 xtb: 6.5.1 (b24c23e)
Fe          27.21826732361234       -0.00119450357755       -0.07273466847188
C           23.83143432451506       -0.02122097753943       -0.19264604642373
C           24.48428846534273       -1.23594885683245       -0.22669966062658
C           23.81027772771292       -2.49824632068559       -0.28007161259413
C           24.77002190233826       -3.44614751372526       -0.39118285107854
C           26.02928728978589       -2.75892587647500       -0.42209626718247
N           25.84249823467134       -1.41102782982490       -0.27800171655189
C           27.25440206618244       -3.38543092833795       -0.62351891484416
C           27.27373475621348       -4.84711804613009       -0.85906379975767
C           27.94907141386413       -5.69306647353465        0.02578667827412
C           27.97351835651168       -7.05907242896266       -0.18856097165104
C           27.32180334960865       -7.58299585915499       -1.30137031150368
N           27.34941172269792       -9.01629078131393       -1.53467827951916
O           26.77110796012795       -9.43459407965329       -2.50464044456275
O           27.95004478877602       -9.69829547697154       -0.74447787165096
C           26.64574630228440       -6.75772215000273       -2.19546159818131
C           26.62215771892244       -5.39361459118222       -1.96863271248702
C           28.46204344060114       -2.70081622817588       -0.62402711691882
C           29.72827978129017       -3.31036349123266       -0.90455564202056
C           30.66868816909464       -2.34934393531311       -0.74100095368254
N           28.62798753952931       -1.36866884839579       -0.33161353016573
C           29.97458730279715       -1.15699707877389       -0.36702373703052
C           30.62710321636109        0.02997006331676       -0.01373365594921
C           29.94234455570942        1.19925079345939        0.33768939480911
C           30.60172692318539        2.39501613661100        0.76014514788670
C           29.63665880705652        3.32949612728542        0.93368783575658
C           28.39133381465500        2.70339721893308        0.60049870879823
N           28.59269237205512        1.38291583649028        0.27741301050285
C           27.17301091829883        3.36746977480485        0.56515701051548
C           27.15096142789704        4.82103411814953        0.84613840533979
C           26.42672744917854        5.31775062855997        1.93391394605686
C           26.40702102515132        6.67391708055132        2.20436156532018
C           27.11248347562379        7.54161879936558        1.37551073919808
N           27.09414580119467        8.96696146890988        1.65403999387199
O           26.45472561294119        9.34140910805746        2.60335490471598
O           27.71994729775918        9.68681723781683        0.91885792558790
C           27.83564838878357        7.06772435279817        0.28464281112340
C           27.85392503486561        5.70916234932869        0.02658917675851
C           25.97225131818290        2.73085882069935        0.26913405498651
C           24.71105667752855        3.40605023767859        0.15779336227070
C           23.77571371033652        2.45311127287047       -0.06351364976271
C           24.46658012425830        1.19910649464962       -0.09344170277177
N           25.81386676927763        1.38585490960731        0.07583265538930
H           22.74836656401364       -0.02663104567985       -0.23835507147220
H           22.74016475083389       -2.62261154154728       -0.23494443139180
H           24.64907231035840       -4.51585866087123       -0.44508163135393
H           28.44427205880344       -5.27271000274879        0.89328864545925
H           28.48937402494630       -7.72349487059303        0.49414843772709
H           26.15014471156339       -7.19045475603691       -3.05615870639657
H           26.10986706970612       -4.73881139550589       -2.66378996062358
H           29.86896086675268       -4.33812365353169       -1.19682579093014
H           31.73758159689845       -2.42626692720741       -0.85743162783890
H           31.66578035884612        2.49079760162206        0.90389100281861
H           29.74821942905587        4.35016499291033        1.26119320665887
H           25.89074309272264        4.63012340083135        2.57762146752216
H           25.85471360002129        7.06805873943347        3.04892075299749
H           28.37238947772441        7.76467367194632       -0.34769660904514
H           28.40405926540249        5.32810712212353       -0.82583709378822
H           24.57324795331497        4.47237743752723        0.23394719289758
H           22.71167088963067        2.56847500837813       -0.19441382228849
Fe          64.31429601093154        0.04288691260749       -0.03462392913868
C           67.69875740185633        0.10223050465320       -0.15842445562775
C           67.04951464554020        1.23792618858128        0.27984979806280
C           67.72513817858983        2.42383333926436        0.71318197835936
C           66.76734190306057        3.34814013894625        0.95940740369958
C           65.50773475724215        2.72909695256714        0.66080181639577
N           65.69195064493384        1.42483912212473        0.29073369352450
C           64.28518379070375        3.39212954760425        0.68914793949636
C           64.26918260915566        4.83814540051097        1.00573108009412
C           63.57485954396442        5.30478001485314        2.12603875303198
C           63.55428615815457        6.65406634150519        2.42837813070801
C           64.22910424100530        7.54552829620776        1.59923773642641
N           64.20591353481545        8.96441103049912        1.90890450729073
O           64.80635198501260        9.70545411327464        1.17364612634611
O           63.58856070908669        9.31246372727332        2.88249748128054
C           64.92423795527839        7.10166331054341        0.47793601896209
C           64.94367592472423        5.74952330620617        0.18784276706969
C           63.07738816643274        2.75953361073596        0.42738009278868
C           61.81290608018985        3.43198163658155        0.37643477728859
C           60.87037708686113        2.47707308170372        0.18946481284460
N           62.90844554378038        1.41104738440294        0.22575022765776
C           61.56160650453872        1.22778167281473        0.12044259224140
C           60.90793247879380       -0.00870340318139        0.04990039651910
C           61.59362902381575       -1.22646034192002       -0.03934530183930
C           60.93779298906450       -2.49633834846040       -0.05857195288680
C           61.90017634679359       -3.42678459299198       -0.26683518824209
C           63.14011195950658       -2.71827280365420       -0.38710331213703
N           62.93965627490904       -1.37191586497697       -0.19874578985053
C           64.35110942486654       -3.31681741333937       -0.70689460504416
C           64.36802224323144       -4.76827921321033       -0.99761558300651
C           65.12533674672498       -5.63821224135380       -0.20750321487285
C           65.14137588408289       -6.99522085041839       -0.47399006138649
C           64.39862708743684       -7.48566873999189       -1.54420856646149
N           64.41391852107313       -8.90960891234216       -1.83022556780788
O           65.08323605386191       -9.61404198121753       -1.11889175054959
O           63.75602988362731       -9.29833576914655       -2.76102692145379
C           63.64115702166414       -6.63588028817776       -2.34522618827928
C           63.62689573716782       -5.28142262154082       -2.06636781100910
C           65.54897693464638       -2.61224673696237       -0.77247994178670
C           66.80390948251022       -3.19122366937995       -1.15833566489694
C           67.74216324226393       -2.22735493883169       -1.00686787371926
C           67.05884061514492       -1.05938797858291       -0.53817376017559
N           65.71263456252200       -1.29616991307502       -0.43712907202916
H           68.78172392678204        0.12225506283900       -0.20235375396916
H           68.79490431508033        2.51747774737425        0.81048721281362
H           66.88991833043954        4.35871459188707        1.31373625746552
H           63.06205833341821        4.59869906472301        2.76867995173106
H           63.02392301773533        7.02481643213865        3.29724678450815
H           65.43771962537741        7.81676285957121       -0.15344995022892
H           65.47068561114878        5.39241735322771       -0.68919256093037
H           61.67452693853831        4.49711453652850        0.46513028716822
H           59.80181766564669        2.59271599407555        0.10683633045267
H           59.87762096218164       -2.64131262992316        0.07214907660805
H           61.79046079347961       -4.49707116557522       -0.32993981533370
H           65.69034841614250       -5.24490304779974        0.62947890332795
H           65.71959469213120       -7.67847556646604        0.13634227551335
H           63.07530634039462       -7.04234000922511       -3.17486035242783
H           63.05021873687793       -4.60731924816102       -2.68888324112111
H           66.93632895943135       -4.20366505375898       -1.50370483817774
H           68.80355802759051       -2.28361687427358       -1.18827624210365
C           32.02764766681110        0.04460012564975       -0.00183944268051
C           33.25382090450822        0.05453340615509        0.00583534726247
C           34.59293543520765        0.06055947037948        0.01603600170971
C           35.82570893016486        0.06082981841914        0.02125225540753
C           37.15971878975837        0.05851220447403        0.02710607726730
C           38.39267019571728        0.05299874839350        0.02924834840593
C           39.73125509296718        0.04618881166011        0.02822354123404
C           40.95795845620937        0.03764417929212        0.02462358648500
C           50.57846567146758       -0.01071900740960        0.07916027429541
C           51.80535297502232       -0.02020907165146        0.09483279614242
C           53.14341028444168       -0.02829685730252        0.10742826906609
C           54.37667928715101       -0.03644863528132        0.10999447841519
C           55.71019710446350       -0.04026119195344        0.10825320293780
C           56.94331431188886       -0.04103957523587        0.10100618571582
C           58.28187760644037       -0.03545132152795        0.08786290759300
C           59.50832397542307       -0.02664923398634        0.07286190253701
Fe          45.76874507360154        0.01253493251202        0.00597643260803
C           42.35692873064637        0.02999689406089        0.01616758737116
C           43.02338581977844       -1.18336248008729        0.23220908940267
C           42.34765247416592       -2.41442068244155        0.49666333621068
C           43.29651598341299       -3.38206179948833        0.50912735286829
C           44.54690688367644       -2.73549804564286        0.24434767664086
N           44.36759587676231       -1.37991246172223        0.12230317314763
C           45.75219431107708       -3.40669656483731        0.07500631219717
C           45.74210310046560       -4.88693576580922        0.10100778759950
C           46.47000863599866       -5.58113419556712        1.07185106295607
C           46.45848061770182       -6.96383836252571        1.10287119595286
C           45.71770393140235       -7.65783397669083        0.15068083417320
N           45.70395265379556       -9.11072150026125        0.17747192264910
O           45.04523660290069       -9.67687411308133       -0.65589940535357
O           46.35405995202725       -9.65810422341885        1.03034291424255
C           44.98908409588093       -6.98554880918360       -0.82616256734565
C           45.00176406082230       -5.60267638228099       -0.84452084648669
C           46.96526975202560       -2.75505988083355       -0.11011696703516
C           48.21348396143856       -3.42353276435126       -0.32667547558613
C           49.17309312186467       -2.46645359238678       -0.32363617158338
N           47.15747063151136       -1.39721679878687       -0.03477103090661
C           48.50553049619602       -1.21944593708662       -0.12031062840922
C           49.18022532884883       -0.00329068076220        0.05425455994765
C           48.51155731679899        1.22061458823383        0.19171058410381
C           49.18492435585774        2.46624936841785        0.38463929732083
C           48.23704340041602        3.43284944361773        0.32042166644577
C           46.98946959795418        2.77044713102453        0.08308805822425
N           47.16919490026307        1.40965599554215        0.05197649744953
C           45.78674369836400        3.42911307232876       -0.14221026822131
C           45.79741573311053        4.90775167935362       -0.21837907215831
C           46.54040634823416        5.55498472985036       -1.21003755501754
C           46.54843226701837        6.93553435365349       -1.29291915426150
C           45.81313628121255        7.67484744919239       -0.37102145898423
N           45.81927583991398        9.12572662887712       -0.45273776954570
O           46.47366594794503        9.63145426027388       -1.32772054724495
O           45.16833726581405        9.73198765799557        0.35857945743071
C           45.07180231406200        7.04977802213119        0.62739560962652
C           45.06454760742557        5.66843642715932        0.69729180363628
C           44.57444671572730        2.76724750035101       -0.29418872209268
C           43.32823448520664        3.42123629143354       -0.56080599401928
C           42.36796296244694        2.46653019198972       -0.50458319136941
C           43.03329276541604        1.23436216250380       -0.21985218944493
N           44.38090672391762        1.41700884975726       -0.13491809823436
H           41.28474383774839       -2.51118412371752        0.64768091182200
H           43.17053263891046       -4.43763684410471        0.68620027092815
H           47.03338046661816       -5.02840267076414        1.81452034193651
H           47.01383450254756       -7.51119650109055        1.85500747335983
H           44.42343907224372       -7.54964499199313       -1.55797519288785
H           44.44690937454350       -5.06681177963256       -1.60574244279105
H           48.33132573413910       -4.48584104327900       -0.46481832251202
H           50.23796617627263       -2.58002000264444       -0.44647426801425
H           50.24593836798041        2.57257052081128        0.54248892097310
H           48.36150459894593        4.49790211784731        0.42854672952744
H           47.10013228761110        4.96676829949091       -1.92778892034775
H           47.11467504660342        7.44657577925819       -2.06226807084320
H           44.51194905180897        7.64872019662812        1.33558422706308
H           44.49979459166667        5.16946037306110        1.47608244217454
H           43.21185032636448        4.47288002037537       -0.76558692052856
H           41.30404035550097        2.57242243335338       -0.64172252689254
