194
 energy: -322.141566959970 gnorm: 0.000665309404 xtb: 6.5.1 (b24c23e)
C           25.66182895599208       -0.11572036587878        0.05613602183965
C           26.27546882331906       -0.98640692774028        0.94785417961158
C           25.62805722100675       -1.90486384749692        1.82059019887755
C           26.59261292611136       -2.55731039320624        2.53642450281534
C           27.86004855493163       -2.04998955478957        2.13236037024961
N           27.61830235814319       -1.11540732729264        1.16547274965379
C           29.12391509679441       -2.42494504909861        2.60502301230629
C           29.16089892068411       -3.43144413617603        3.69163141224865
C           29.83732349546900       -4.64181274604271        3.51838900899296
C           29.87334860316741       -5.58578683514795        4.52894922758534
C           29.24194071074018       -5.33145773242561        5.74930780905850
N           29.24385060699830       -6.28858873201877        6.74899629112400
C           28.55843807536346       -4.12612148092193        5.92893568936907
C           28.51935927420999       -3.19150831499970        4.90939599787840
C           30.33494026927594       -1.91763682307285        2.12621976877666
C           31.63277706427404       -2.26299477297979        2.67693654611505
C           32.54878651017493       -1.58901228805988        1.95041972281558
N           30.48372295421743       -1.03105497281855        1.10311130020273
C           31.80881042660434       -0.82443602915809        0.96593403623327
C           32.44136865604894       -0.00346939220255        0.00951328939294
C           31.80166231026655        0.81566665374682       -0.94068226021906
C           32.44283061802022        1.62141801789148       -1.91801670235404
C           31.47382976380601        2.28090107945185       -2.62291310114835
C           30.21008550757287        1.90413177909103       -2.09051220178300
N           30.46025638354016        1.00814526358570       -1.08410171973551
C           28.94723326681062        2.33651631648636       -2.51184014751354
C           28.91195105463952        3.35599521911015       -3.58538347166496
C           28.24820185709326        3.10431777307698       -4.78897586145592
C           28.21457189060430        4.05494041650448       -5.79351930628744
C           28.83552293209882        5.29307682929722       -5.60908729573184
N           28.83664868219117        6.23185434654939       -6.62577482791406
C           29.50598728292840        5.55117855152059       -4.41067290947510
C           29.54296429054505        4.59122087925111       -3.41515317048293
C           27.73376721739476        1.87484173729307       -1.98818692202810
C           26.42670026814688        2.36913695822863       -2.39091804049740
C           25.51777462643986        1.67488408532673       -1.67617325310090
C           26.26868465158302        0.76883159321295       -0.82597759886991
N           27.59956101765197        0.92399149795993       -1.03336861408065
H           24.57646877629076       -0.13341195556472        0.05811750877909
H           24.56022290891062       -2.04418090220695        1.87866520889878
H           26.44464845399928       -3.33053303436467        3.27274200487975
H           28.34148248979903       -0.59768940902253        0.67737629593697
H           30.32209261274408       -4.85070566639856        2.57103688230162
H           30.39291972202934       -6.52580912464485        4.37844388356260
H           29.07468421604006       -5.93541212707738        7.67726179080637
H           29.99710230722244       -6.95583287983143        6.69836709934765
H           28.06353402765783       -3.92402410598858        6.87264876503843
H           28.00468753992028       -2.24954722171281        5.06530189068976
H           31.79937220617764       -2.91879402898886        3.51614919814291
H           33.62175725075878       -1.58486915661086        2.05772860675833
H           33.51003173607687        1.67843287856747       -2.06004297083110
H           31.61913313500491        2.95912183804747       -3.44785566606645
H           29.73908000887870        0.55185047702814       -0.53515230958713
H           27.77254393447957        2.14202655298564       -4.94471054375701
H           27.70513608512367        3.84313092568171       -6.72729481328273
H           28.09058998076460        6.13580867496652       -7.29590410924081
H           28.99853521046762        7.18083291212100       -6.32969820850252
H           29.99276828488079        6.50907697650380       -4.26245572874618
H           30.04786524466423        4.80822464899384       -2.48004539730484
H           26.25174006546634        3.15164381217703       -3.11177112373219
H           24.44189851076451        1.75454231258089       -1.69253752190554
C           64.41922851266592        0.03241426438533       -0.12379759941197
C           63.80088130811545        0.68910551580172       -1.18030205074712
C           64.44417401138409        1.33204510424343       -2.27443624518228
C           63.47569946921499        1.86414729198680       -3.07905682084503
C           62.20975450304897        1.57258375490108       -2.49656418316590
N           62.45648299910545        0.85341118466471       -1.36140899209684
C           60.94302828533452        1.92593959641173       -2.97818994757317
C           60.90121140329489        2.75166059747885       -4.20768877257186
C           60.23913178372224        2.29687669925521       -5.35100079241978
C           60.19725632893639        3.06607060149962       -6.50008286010445
C           60.80828583603945        4.32248001268835       -6.52597314933518
N           60.79999758502208        5.07907894996708       -7.68489244931336
C           61.47845398165286        4.78191793519733       -5.38932776992990
C           61.52334876426332        4.00208731169768       -4.24729688831598
C           59.73409712634346        1.55965664481578       -2.38043592704047
C           58.43173263887270        1.99019926116758       -2.85518683116289
C           57.52007833097745        1.43150634664322       -2.03193595468904
N           59.59174580747156        0.77581732873351       -1.27568948809460
C           58.26703145260014        0.67234441215776       -1.04842412212303
C           57.64046921588678       -0.05576775676228       -0.01573059689493
C           58.28542930995162       -0.76541562847507        1.01542147562514
C           57.64942537883410       -1.52111002341388        2.03518176290223
C           58.62215776245559       -2.04110364234654        2.84395960711900
C           59.88316249435058       -1.60970509053401        2.34764714601550
N           59.62752457482501       -0.85029728538070        1.23571927703192
C           61.14855508342298       -1.91004925487633        2.86521845902306
C           61.19081111332854       -2.71279924131783        4.10894721482054
C           61.86254137214652       -3.93760190247677        4.14596521802412
C           61.90266537326240       -4.69072694678872        5.30567888238555
C           61.27964511438464       -4.22511178872447        6.46662643304871
N           61.28423442119263       -4.99344201594145        7.61754991844362
C           60.60130705310659       -3.00388017566963        6.43715339730143
C           60.55853272107176       -2.26139716741527        5.27057003867525
C           62.35896841355373       -1.50383691848399        2.29078993654450
C           63.66822910206410       -1.76949958623867        2.86549256387528
C           64.57296466632816       -1.23113914625410        2.02252955012890
C           63.81728327355701       -0.62366972049785        0.94201958787600
N           62.48769798967789       -0.79921640022084        1.14158669596506
H           65.50458957008173        0.04161155183235       -0.13931938829147
H           65.51215486024421        1.36970773236076       -2.41948456883402
H           63.62009957360662        2.40212109539250       -4.00191252710114
H           61.73556453130340        0.49054290234060       -0.74669390803199
H           59.77027799283819        1.31901744305127       -5.34218435196876
H           59.68862465602044        2.69765806767632       -7.38428452424666
H           60.95329001805120        6.06571664963883       -7.55039762276525
H           60.05248540116629        4.86723970030111       -8.32634569002709
H           61.95807394495789        5.75459357580864       -5.40417424449912
H           62.02712586739987        4.37599399597240       -3.36249736030804
H           58.25893600923805        2.64477199170065       -3.69407119007965
H           56.44572361773329        1.51946657024063       -2.05975289325679
H           56.58299003763746       -1.65078184051986        2.12603602079249
H           58.48103155756412       -2.67862355791353        3.70144783475155
H           60.34589852256907       -0.42502458008988        0.65888356143892
H           62.33909399299374       -4.31188863566334        3.24644389720040
H           62.41804109462486       -5.64490688460111        5.31824958953497
H           62.03490079142216       -5.66236362533721        7.68112654950652
H           61.11798698872665       -4.48471042390717        8.47112925352768
H           60.11297694166836       -2.63830485712084        7.33409030152668
H           60.04788906241669       -1.30451494191583        5.26292566947400
H           63.84735111814289       -2.28463811522774        3.79560342231425
H           65.64879961457892       -1.22013143973293        2.10368677495522
C           37.64317911867960        0.03816062047310       -0.03556077760225
C           36.41450654386745        0.02965097702060       -0.02887139449989
C           35.07066076105119        0.02055973035299       -0.02007842966355
C           33.84651745892466        0.01056377632117       -0.00497032293912
C           38.98693237535728        0.04476311384335       -0.03509693460382
C           40.21136200572369        0.05217252380888       -0.03488226112904
C           53.66728475862809       -0.09261658522059        0.01033307906954
C           52.43855938997361       -0.08620481992239        0.00961433791570
C           51.09487925627445       -0.07176149036462        0.00661732023014
C           49.87058510378034       -0.05206620762617        0.00667156186595
C           55.01118647334510       -0.08930344858371        0.00744552231915
C           56.23536518959542       -0.07613225419119       -0.00005738279586
C           41.61565946187235        0.05491949211126       -0.02574357138693
C           42.23271165035113       -0.26048266148375        1.20076357496103
C           41.57298954668900       -0.60034080055270        2.40955981180496
C           42.52863995608804       -0.79873948656020        3.36888983570656
C           43.80009455483800       -0.57790434086328        2.77391186007715
N           43.57064561081258       -0.26732365919596        1.45990959435229
C           45.05295597612677       -0.67166468238692        3.39408709355485
C           45.05159876013889       -0.95576828471406        4.84863106342183
C           45.68458883825080       -2.09353053582449        5.35547855311685
C           45.68594357182717       -2.35899239186183        6.71315283666884
C           45.06351653581244       -1.47753241332910        7.60102327655746
N           45.03180097890588       -1.75812178714438        8.95582151371701
C           44.42236352606747       -0.34090108054857        7.10171633316467
C           44.41682217395158       -0.08845494133624        5.74145451831533
C           46.28316014096200       -0.51709742328113        2.75144408539568
C           47.56445107557358       -0.56569844651777        3.43187848559773
C           48.50885804503045       -0.39553432598117        2.48300495855663
N           46.46968009884846       -0.29390846553850        1.42095626435645
C           47.80255994455440       -0.22753135892958        1.22906731732984
C           48.46651287073733       -0.02532671432166        0.00198550405023
C           47.84915612146479        0.21232763177710       -1.24168364868513
C           48.50701269006883        0.38518574634859       -2.48637674336332
C           47.55145234399200        0.61395551094559       -3.43899324072546
C           46.28204408684694        0.59680872003829       -2.80034939081809
N           46.51239031668416        0.33855242838434       -1.47512189629919
C           45.02989958749603        0.79017217243155       -3.39844898257811
C           45.02940755754400        1.11366668194154       -4.84472671815265
C           45.68878573600222        2.24932043239419       -5.32183979149178
C           45.68325088734321        2.55940938166570       -6.67018189584530
C           45.01717844484325        1.73126316688121       -7.57734335536640
N           45.04903890183858        2.01193413910903       -8.93199599283028
C           44.36878900935672        0.58489861246070       -7.11027406810348
C           44.37052686356134        0.28788521155273       -5.75922669107443
C           43.80077087203336        0.69979035951516       -2.74131905931228
C           42.52231406583271        0.96731548243194       -3.37471854948887
C           41.57726165725985        0.75572383564598       -2.43478511422185
C           42.28064696893511        0.37388293581984       -1.22704019781101
N           43.61275965874359        0.36134016727211       -1.43576339430885
H           40.50408311484025       -0.68457612564836        2.52152392608285
H           42.36859966422472       -1.08524847407774        4.39543242638183
H           44.29834141043183       -0.07851252230553        0.77870970841021
H           46.16216408645619       -2.78699045565786        4.67204966953514
H           46.17154680276000       -3.25100743590255        7.09353796424861
H           45.76198973071467       -2.37143019715177        9.28094341501560
H           44.87346434865427       -0.96162996800893        9.55211515751677
H           43.93390161791405        0.34505419985881        7.78521895821356
H           43.93418468644454        0.80655555717011        5.36401183657694
H           47.70259609699843       -0.69670081064407        4.49290845828502
H           49.58087464546869       -0.37038447859067        2.59689032046373
H           49.57449222909979        0.33281873418984       -2.62767216349536
H           47.71025414089885        0.76846623118451       -4.49368935813845
H           45.78567349612010        0.24502009521320       -0.77345572691739
H           46.19117904546621        2.90837309005927       -4.62206681703733
H           46.19148895785196        3.44867625968279       -7.02684144222758
H           44.30657126223320        1.59590797285155       -9.47112009001681
H           45.23039020923000        2.97545735385855       -9.16365095591184
H           43.86311295322621       -0.06986520416091       -7.81152778173811
H           43.87272512331681       -0.60837840372346       -5.40571865118911
H           42.38691308206458        1.28809871528666       -4.39493294061735
H           40.50681961378432        0.85243845366998       -2.52228621191521
