234
 energy: -389.751351954513 gnorm: 0.000481598546 xtb: 6.5.1 (b24c23e)
Zn          43.23670514539878       -0.00592632797449        0.00484805262875
C           39.82624590793692       -0.03560855709276       -0.02540720624200
C           40.45645264605735       -1.27276372997693       -0.08741820113604
C           39.78275347937215       -2.54053002830590       -0.12619118362881
C           40.74204061823388       -3.49900038950059       -0.16222155541700
C           42.01481654627003       -2.82752522712534       -0.15498877499572
N           41.80587810616452       -1.48024051070166       -0.10294056502083
C           43.26576741690759       -3.45647899494770       -0.16724142734848
C           44.50480658946986       -2.80879117312194       -0.11721459419249
C           45.78442567320683       -3.45963401679388       -0.17596992215011
C           46.73095089197577       -2.48815043960041       -0.11791969328970
N           44.69897197053587       -1.45529543531807       -0.03630201571406
C           46.04080171421910       -1.23478998022113       -0.03152835391113
C           46.67216102715329        0.02413962037649        0.03151731684431
C           46.01812268760780        1.27165210534454        0.08927500625210
C           46.68503751085811        2.53991994591774        0.12397416879948
C           45.72075907822317        3.49468933169816        0.16633196651011
C           44.45350933878881        2.81760485891384        0.16578872498889
C           43.20270591888163        3.44392064707985        0.18899493914982
C           43.18745578762714        4.92646310127225        0.27429967250358
C           42.63499358970157        5.68970640024884       -0.75511088743403
C           42.62266868255053        7.07414284179195       -0.67335294505369
C           43.15640080155244        7.71281237010698        0.43774147456053
C           43.70564425107307        6.96062706295776        1.46731283082043
C           43.72406217300667        5.57627971564973        1.38664996422929
C           41.96338055118092        2.79408946719693        0.14051868308901
C           40.67862522144324        3.43887100700436        0.20751968579047
C           39.73702412700185        2.46445330194472        0.14304448748727
C           40.43373929070987        1.21241995920765        0.04554660350853
N           41.77911568425471        1.44517507602063        0.05022037160858
N           44.67251166400132        1.46664261490494        0.11042274855165
C           43.27710992620806       -4.93977664102631       -0.23926823393569
C           42.74442654789230       -5.59823900723434       -1.34846438404759
C           42.75658627518487       -6.98344509065093       -1.41504627446094
C           43.29541376735788       -7.72776136571027       -0.37436410282770
C           43.82514996048535       -7.08039354770437        0.73371178731557
C           43.81899876335977       -5.69521349960551        0.80144670446117
H           38.74061152361908       -0.04579437840879       -0.02044968422791
H           38.71160173330610       -2.66899686597617       -0.11856730243874
H           40.60494779457053       -4.56841886772287       -0.17969877664860
H           45.93741312319645       -4.52325253359187       -0.26376892478289
H           47.80316620994922       -2.60234273154601       -0.13808303073179
H           47.75487683207957        2.67543702847066        0.11052791245959
H           45.85399814044690        4.56443970674017        0.18327617854139
H           42.22863630361972        5.19321350930044       -1.62939055943644
H           42.19522692688230        7.65712099746866       -1.48177302146330
H           43.14445776316162        8.79506454497229        0.50114091290158
H           44.12110138353115        7.45439836372879        2.33887710471284
H           44.14251027697755        4.98991944001329        2.19725648182320
H           40.52192362346202        4.50134454592213        0.30421856841628
H           38.66376389196176        2.57173592574196        0.16624958475079
H           42.33410699456395       -5.01831609268841       -2.16783106016136
H           42.34445483421320       -7.48399849913931       -2.28438619293787
H           43.30267731019606       -8.81062198128697       -0.42688820891552
H           44.24439819297093       -7.65716907798882        1.55077856304154
H           44.22194669981941       -5.19169040856577        1.67327972533238
Zn          83.68476008518644        0.06000549511838        0.01841970256381
C           87.09500092777370        0.08563225653748       -0.03344811661517
C           86.46647646731556        1.32518811186676       -0.03805375034116
C           87.14217054005991        2.59239957314839       -0.02708570476376
C           86.18439951248470        3.55300666220186       -0.01649510292310
C           84.91049391341048        2.88380269653826       -0.02972378655356
N           85.11731523692382        1.53520555922040       -0.03614588814625
C           83.66071845496005        3.51490051471722       -0.00726008593935
C           82.42080483483879        2.86777775681594        0.02487426939870
C           81.14195472048664        3.52242484188167        0.00295797911939
C           80.19414056871686        2.55076970665279        0.02712453818728
N           82.22480850287552        1.51238227768138        0.05029691133125
C           80.88266510915295        1.29387524738911        0.05551843944706
C           80.24965973934609        0.03427384384580        0.06809377074803
C           80.90190467889080       -1.21551588557439        0.06747794642759
C           80.23280517575120       -2.48299318364089        0.05047342338589
C           81.19550566281437       -3.44024021865816        0.04303588010106
C           82.46406036989414       -2.76588521365550        0.06351674189114
C           83.71376263712560       -3.39471797530000        0.04923554347063
C           83.72659276634778       -4.87959840795099        0.06595273274418
C           84.27141080819021       -5.59529141558775       -1.00101769194946
C           84.28068654314366       -6.98206615365691       -0.98394056953756
C           83.75156130697357       -7.67063531584862        0.09919557097483
C           83.21017965378724       -6.96601676970002        1.16592323072408
C           83.19482525869267       -5.57938621627925        1.14997580645970
C           84.95401008152444       -2.74538351087339        0.02155686334696
C           86.23799686192177       -3.39451580185632        0.05159898508857
C           87.18095049645666       -2.41964217437804        0.02458203945971
C           86.48589456770269       -1.16344868901481       -0.01301038500459
N           85.14016160284021       -1.39411839078227       -0.00994000394368
N           82.24724857423102       -1.41342462821717        0.07024780390066
C           83.65216577212767        4.99986981635486       -0.01825643847766
C           84.18066481749273        5.70222422349349       -1.10224945011893
C           84.17182799899906        7.08900915773300       -1.11160081947045
C           83.64046574634196        7.79110367752142       -0.03824121718792
C           83.11472055361224        7.09990157981563        1.04494478116474
C           83.11760340051852        5.71310537838741        1.05551051480846
H           88.18066116008113        0.09414150249352       -0.03509752738454
H           88.21357219661807        2.71878958960674       -0.02064334913051
H           86.32332180864825        4.62197625404595        0.01072051211680
H           80.99015235225478        4.58899641775992       -0.03903624628552
H           79.12200905415564        2.66729388697349        0.01998325636057
H           79.16264046111770       -2.61606587623241        0.03907405807670
H           81.06024564343119       -4.50944242006442        0.01296484685355
H           84.67402396030155       -5.05953713606424       -1.85358793330057
H           84.70200989755074       -7.52770309466617       -1.82112928623554
H           83.76095057732503       -8.75469435360212        0.11193369744618
H           82.79840224141439       -7.49892957899653        2.01591071110328
H           82.78256567296994       -5.03047773302763        1.98945722549629
H           86.39332862245620       -4.46048221214909        0.10010469023009
H           88.25414537840511       -2.52948700704216        0.03629015341885
H           84.58512241091010        5.15561100609327       -1.94704098313113
H           84.58086502594010        7.62398272533066       -1.96167878758758
H           83.63602776512219        8.87522219742151       -0.04593584617052
H           82.70120539390710        7.64348474091424        1.88730789109464
H           82.71793033721374        5.17505555294766        1.90800324626155
C           49.30020523913736        0.04532553533764        0.02279829177818
C           48.07777507057699        0.03641539665822        0.02621872108170
C           50.64958184684367        0.05106114577723        0.01730578173092
C           51.87213744539135        0.05415275126434        0.01188371414160
C           62.78661528266070        0.04526433892012        0.01864683130890
C           61.56387432476151        0.04862039866027        0.02151515250934
C           64.13538588526617        0.04106604756839        0.01685677006791
C           65.35813096531685        0.03689393301623        0.01477668965200
C           76.27221341593763        0.01524687182918        0.06206068521149
C           75.04965810833708        0.01705956232828        0.05756972038957
C           77.62158842921282        0.01585222803387        0.06590872266367
C           78.84402780863377        0.02473230659851        0.06903855040259
Zn          56.71846856726245        0.05219184551450        0.01298904855975
C           53.27723543275189        0.05412447602139        0.00875143114385
C           53.92073830440271       -1.20034943140530       -0.00429784833581
C           53.24303225558852       -2.46270010402332        0.01134299771001
C           54.19918821478038       -3.42681111798006       -0.00736622956005
C           55.47081067085767       -2.76074683762823       -0.04304589104572
N           55.26445201488061       -1.40691118028646       -0.03289525041314
C           56.71658644399193       -3.39732745726562       -0.05822191700250
C           57.96290636974750       -2.76221037697332       -0.04773841280022
C           59.23393907518806       -3.42757004017176       -0.10992695555394
C           60.19103824802228       -2.46449747300443       -0.08793665793599
N           58.17066230880442       -1.40918483174356       -0.00206862880903
C           59.51439395962738       -1.20325711144866       -0.02054831765575
C           60.15935152061623        0.04995904860990        0.02085289161706
C           59.51575820846144        1.30392167844201        0.06150252613410
C           60.19357601223693        2.56396129677671        0.13704505723213
C           59.23758311830970        3.52822543451206        0.15667108031770
C           57.96606635094331        2.86488175969069        0.08376862171567
C           56.72040659709262        3.50165221941130        0.08687997848535
C           56.72205634351691        4.98663090990795        0.12062674529486
C           56.16682056743429        5.67001137468462        1.20315852187864
C           56.17400359074434        7.05645139452029        1.23574379683546
C           56.72987561907931        7.77662739774819        0.18709842832733
C           57.28140957369851        7.10412201564689       -0.89496954760236
C           57.28076515535392        5.71768603771694       -0.92848203339322
C           55.47393758459408        2.86654885319207        0.06278515538120
C           54.20323782854386        3.53396239827815        0.02013625031982
C           53.24599899579508        2.57088618289905       -0.00012603033996
C           53.92215770362667        1.30788680836782        0.02034166916687
N           55.26602371564100        1.51293822895552        0.05301363054548
N           58.17241503431343        1.51172330444543        0.03557544891556
C           56.71581640496251       -4.88255876312687       -0.08588239135223
C           56.17232251155519       -5.57012937004670       -1.17164914799749
C           56.17432769520322       -6.95678663568212       -1.19573139663746
C           56.71288872652495       -7.67277597918500       -0.13519740713431
C           57.25339101206448       -6.99594367227706        0.94973126878600
C           57.25834342647182       -5.60933915771536        0.97460607457382
H           52.17231112419623       -2.58833069615474        0.03975981312410
H           54.05734134712347       -4.49538175457410        0.01257177408877
H           59.37471315897448       -4.49454704778724       -0.17403470038227
H           61.26172122341553       -2.58953411891805       -0.12056839955200
H           61.26414849285731        2.68765520201432        0.17728190640024
H           59.37971984338328        4.59467136835616        0.22612633776862
H           55.74297295470565        5.10873330825357        2.02854007293525
H           55.74458806517524        7.57690470834144        2.08470873172124
H           56.73336563747960        8.86045587798629        0.21318626578055
H           57.71416752392983        7.66198770851647       -1.71808200936200
H           57.70186989645213        5.19403903939606       -1.77960086975833
H           54.06258878571477        4.60261496001774       -0.00333084836135
H           52.17553873092560        2.69761442693934       -0.03336139070829
H           55.76139300089202       -5.01219391121046       -2.00581038062185
H           55.75396618825680       -7.48070818157514       -2.04709837007242
H           56.71132282318733       -8.75675909713969       -0.15410261606521
H           57.67269424724241       -7.55052870899052        1.78201541737940
H           57.67082183391100       -5.08205995076253        1.82772973836571
Zn          70.20343577036549        0.02673150760611        0.02967033854906
C           66.76264931460918        0.03352023066600        0.01613605832441
C           67.40431998602173       -1.22200010659595        0.00550679336127
C           66.72448819898486       -2.48322905830676        0.01993706094519
C           67.67917083411547       -3.44878070850767        0.00255823750427
C           68.95197307260015       -2.78463816483845       -0.03116871528214
N           68.74753840889798       -1.43040490895525       -0.02062149736505
C           70.19683787759293       -3.42268039465643       -0.04609774112037
C           71.44413842355111       -2.78894974861784       -0.03158866868039
C           72.71433760369229       -3.45586012389322       -0.09265006288355
C           73.67280139004431       -2.49421620252598       -0.06469259282782
N           71.65365594082452       -1.43648369164466        0.01853833775598
C           72.99798670297545       -1.23219860701760        0.00469081996460
C           73.64460003084314        0.01990204301209        0.05021575650007
C           73.00294161349557        1.27485747565094        0.08702573769638
C           73.68190894076291        2.53432895802237        0.16153716091796
C           72.72699318436952        3.49982803622696        0.17568050685254
C           71.45500680015918        2.83778726026709        0.10091992069868
C           70.21005452927514        3.47631413092984        0.09972570650732
C           70.21299996667207        4.96147731846876        0.12856560298793
C           69.65895855223870        5.64937307356421        1.20880333803307
C           69.66573541599465        7.03596649892505        1.23521427109770
C           70.21975958000544        7.75165483274614        0.18252923187969
C           70.77009408193891        7.07455027601724       -0.89728514783684
C           70.77010420869659        5.68797961316447       -0.92450372666273
C           68.96303261252518        2.84306016752027        0.07410930915396
C           67.69324920565253        3.51206512754720        0.02812903766612
C           66.73491093094071        2.55022670440843        0.00601527792883
C           67.40959838574415        1.28638695724672        0.02883561192329
N           68.75336371703347        1.48950191299660        0.06484509426791
N           71.65973181581153        1.48445764446914        0.05633354339266
C           70.19319491363521       -4.90770063502360       -0.07979492946758
C           69.64520952185316       -5.58883082589748       -1.16748250232522
C           69.64285278294322       -6.97530976813252       -1.19789078423575
C           70.18176922309620       -7.69772979172814       -0.14191012494816
C           70.72673523231819       -7.02742897174375        0.94484159663429
C           70.73579265022364       -5.64094466879236        0.97616311402664
H           65.65347421893570       -2.60679778546932        0.04676093749577
H           67.53560076177683       -4.51711328527755        0.02262393962067
H           72.85390931422316       -4.52277868971512       -0.16018338506718
H           74.74332979118454       -2.62109662485169       -0.09493471706318
H           74.75245755768148        2.65730000846449        0.20452827216431
H           72.87013267618092        4.56632758041173        0.24239090671421
H           69.23600186358168        5.09166503006178        2.03705901899019
H           69.23717847098411        7.56006046676699        2.08237433747962
H           70.22264324220748        8.83559526971737        0.20362623970892
H           71.20114870654463        7.62891592728221       -1.72364780904824
H           71.19019347410877        5.16058839185977       -1.77381043974261
H           67.55408080395294        4.58089683420551        0.00415531788470
H           65.66466042215698        2.67792394004271       -0.02983661368942
H           69.23394494919033       -5.02581752535482       -1.99805803654228
H           69.21876243799696       -7.49406098647659       -2.05057218724329
H           70.17695116205060       -8.78160110391306       -0.16584136428342
H           71.14612368190970       -7.58705137888176        1.77368628709905
H           71.15119538319385       -5.11895521375928        1.83110173006004
