392
 energy: -753.946142394754 gnorm: 0.000371923757 xtb: 6.5.1 (b24c23e)
C           71.72196439534457       -0.09098377968015       -0.08426246699717
C           72.33074359653679       -1.30133617914401        0.22048352514151
C           71.67959327184290       -2.54091640306915        0.47580111436698
C           72.64024629438018       -3.47174551639499        0.75286127483301
C           73.90927144793530       -2.82766685137936        0.68536544800930
N           73.67250441102016       -1.52571290581907        0.35007246694302
C           75.17239653919678       -3.39595363753030        0.88973329016395
C           75.20106530560012       -4.82578088006410        1.27570880021944
C           75.85521514759483       -5.76210923952353        0.46888743945370
C           75.87830532580932       -7.09929956870434        0.82044990892242
C           75.24505438356049       -7.50450497516309        1.99204398050027
N           75.26468382794017       -8.90767826531364        2.36531917780188
O           75.85742745593647       -9.66838805886339        1.64393761372454
O           74.68580926054757       -9.22471100655325        3.37273629063118
C           74.59151361793761       -6.58829500269388        2.81120962584695
C           74.57040531067544       -5.25409800272454        2.44806299240899
C           76.38951423271700       -2.72184315601369        0.75681445817276
C           77.68360975095666       -3.31908536940616        1.03576987218443
C           78.60522037045230       -2.36600800005790        0.78758142511723
N           76.54555877820283       -1.42559258928078        0.37307084500400
C           77.87265325779650       -1.18615415790073        0.36962041099958
C           78.51183282884386        0.01666235461160        0.00654672970711
C           77.87720671570079        1.22009359564492       -0.35581559332340
C           78.52290827273835        2.42703369760353       -0.73365590331031
C           77.55708915855469        3.36263260086838       -0.98122107308060
C           76.29058326923450        2.75567780843513       -0.75411555213695
N           76.53565457466274        1.45921698928875       -0.38837300398219
C           75.02740902151643        3.33982250384445       -0.90372567512399
C           74.99533344434460        4.77307690136761       -1.27356233276570
C           74.37134770321020        5.18422624941432       -2.45582946496007
C           74.33681860535084        6.52181214054198       -2.80466515571446
C           74.92701482579059        7.45912696633078       -1.96140305800658
N           74.89074787788978        8.86538169039746       -2.32083826772056
O           74.33797321353191        9.16443250228752       -3.34821518070627
O           75.41616168959541        9.64663332454684       -1.56959992559497
C           75.55179000370138        7.07146312410853       -0.77935945672453
C           75.58595102151278        5.73069208278574       -0.44276894561927
C           73.80858585320074        2.67381598856489       -0.73115155918655
C           72.50369040927482        3.30920535730206       -0.83907139389200
C           71.58994271833267        2.34455571316211       -0.61366686947083
C           72.33498801108351        1.12491453402862       -0.35404161627419
N           73.66813300659273        1.36376382045979       -0.42252753335746
H           70.63707040140933       -0.10566750904592       -0.10777320706124
H           70.61218467851238       -2.68919064782725        0.44251555012134
H           72.48909568274219       -4.51561876178580        0.97477618472918
H           74.39701857261608       -0.82850520535592        0.21518961263444
H           76.33223667789103       -5.43621823627947       -0.44799177255312
H           76.37662586592100       -7.83285498530641        0.19817053196180
H           74.11111185290059       -6.92816682847669        3.72082255589652
H           74.07712516263646       -4.52934452029509        3.08528297862115
H           77.84340161017050       -4.32516076931237        1.38797429404618
H           79.67760742941176       -2.42695330417670        0.88011053897602
H           79.59091889886706        2.55263034281400       -0.80841202596915
H           77.70612699683619        4.37989861595138       -1.30437722219814
H           75.81274601828149        0.77823727568629       -0.18014281540810
H           73.92713673488534        4.44370276092336       -3.11058986488673
H           73.86119648501177        6.84873375397599       -3.72150005080029
H           75.99933563923709        7.82088106037639       -0.13766767153032
H           76.05634380808242        5.41857030926568        0.48242173552192
H           72.33449675189175        4.35380742266828       -1.04468751954925
H           70.51418880491684        2.42155090952481       -0.60639234233990
C          158.61699650055124        0.02782029036108       -0.08897916841277
C          158.00823588536943        1.21876025063006       -0.46248430450715
C          158.65999925017826        2.41164346146918       -0.88438856378301
C          157.69903721033378        3.34750669952856       -1.14272935180178
C          156.42908337634947        2.75871187724583       -0.87749266163606
N          156.66586733153636        1.47394214394907       -0.48142453283185
C          155.16542462677347        3.34528370889104       -1.01600980837765
C          155.13707494324285        4.76592074816076       -1.43495445696019
C          154.49954563776393        5.14076039500929       -2.62173562714106
C          154.47625584185752        6.46498222794940       -3.01954022872252
C          155.09246283426194        7.42478647996978       -2.22149021582937
N          155.07169974782053        8.81680777046421       -2.63442939721815
O          154.49509336649743        9.08675145569923       -3.65664132838597
O          155.63358718053976        9.61573147924945       -1.92971841821672
C          155.72977013573333        7.07338473990799       -1.03493014079660
C          155.75136957313046        5.74572800983282       -0.64868085734558
C          153.94786371424905        2.69753724392880       -0.78949908991712
C          152.65224734046186        3.34687291163573       -0.88429639562824
C          151.73107832006565        2.40413301464642       -0.59811642681274
N          153.79273944594490        1.39439637278175       -0.42943403491622
C          152.46525975348894        1.18531147489825       -0.31703277525010
C          151.82712417862589       -0.02536523699437        0.02050653171928
C          152.46195231529913       -1.23581728547658        0.35796933564550
C          151.81606586979169       -2.45969539421871        0.67653136777817
C          152.78190342918697       -3.38690041886544        0.95353522405582
C          154.04872486301795       -2.75317482657921        0.82065838530849
N          153.80361515543859       -1.45769535169016        0.45128412143062
C          155.31213029892285       -3.33070262264029        0.99189045881037
C          155.34536563402168       -4.74827369735614        1.41793729723017
C          155.96469047238813       -5.71148778736234        0.61486206223233
C          155.99893009174542       -7.03726492260679        1.00604930900199
C          155.41319468805108       -7.40411882461813        2.21448595136323
N          155.44789559053487       -8.79451681171959        2.63120055126612
O          155.99484945904729       -9.58180347523369        1.90208199593499
O          154.92712098124971       -9.07540208591491        3.68027890596982
C          154.79403906069203       -6.46100877901876        3.02998141183645
C          154.76018395834549       -5.13870654217363        2.62667095918374
C          156.53068367476189       -2.67260763973905        0.78940252847510
C          157.83565930086201       -3.27141118871890        1.02731153962423
C          158.74922510639095       -2.32911293828041        0.72113857156020
C          158.00399811747548       -1.15225988610458        0.30920589755313
N          156.67088700910904       -1.39284969733681        0.37267610117797
H          159.70203165517606        0.03015571140313       -0.11048459353492
H          159.72806636641059        2.52400586357998       -0.97957671746848
H          157.85057350865742        4.35449086072743       -1.49598546291592
H          155.94088745939396        0.80665051628150       -0.23985242479841
H          154.03546677932439        4.38229214975066       -3.24122035944129
H          153.99055152381956        6.76399137869015       -3.94059576376899
H          156.19728335990166        7.84002616774991       -0.42880808575640
H          156.23203113830684        5.46191886742019        0.28033458684531
H          152.49099065424028        4.38565337027924       -1.12238598132381
H          150.65789714383183        2.50093582031187       -0.56354972394145
H          150.74789538763301       -2.60448474334780        0.68393486024416
H          152.63247021578357       -4.42169699829495        1.21491085017555
H          154.52672144336435       -0.77041563242088        0.26561030203552
H          156.40526042181207       -5.41563117702545       -0.33001466251761
H          156.47063929230970       -7.79111073382115        0.38727234821057
H          154.35022346693754       -6.77115424627074        3.96835054368070
H          154.29407686663208       -4.39321697236999        3.26042117645119
H          158.00489158413319       -4.27113852093103        1.39338912023234
H          159.82496151074082       -2.39056104931843        0.76850500831502
C           83.71416342408506        0.04017029060036       -0.03151147920237
C           82.48564206837781        0.04165385694853       -0.01850160639459
C           81.14160131264086        0.03804475873943       -0.00653337030807
C           79.91757792657667        0.02967221300366        0.00317560896625
C           85.05800984196961        0.03526010323643       -0.04533148283171
C           86.28218125555289        0.02587872366075       -0.05647694183557
C           99.74954684972661       -0.03996805852819       -0.06207425297102
C           98.52068588668435       -0.03705545744635       -0.06363274508945
C           97.17730679627790       -0.03517386777456       -0.06619630520856
C           95.95286274823813       -0.03078375419890       -0.07121360011990
C          101.09291932048163       -0.04168805979432       -0.06106274414146
C          102.31738451253734       -0.04602418561925       -0.05966366991568
C          115.78372783891223       -0.02514230784732       -0.02879165691327
C          114.55484075056073       -0.02640411689120       -0.02926071059804
C          113.21151905919521       -0.02873834272689       -0.03081578288337
C          111.98708667951688       -0.03084827276536       -0.03633540861342
C          117.12705178996038       -0.02523010045760       -0.03222636532978
C          118.35149335039706       -0.02992709782918       -0.03528328881344
C          131.81758574842934       -0.05759251132329       -0.06131444560603
C          130.58874627383739       -0.05474521925132       -0.06458825672930
C          129.24537726088155       -0.05284210557776       -0.06494567239526
C          128.02092343882074       -0.05118115462439       -0.06713742696818
C          133.16096370740206       -0.06026229370736       -0.05955225362047
C          134.38539323155283       -0.06709583573190       -0.05814456426494
C          147.85307044370700       -0.06314442199026        0.02040260511173
C          146.62461689560956       -0.07160222809943        0.01399689767203
C          145.28060779257626       -0.07920845825850        0.00540110871860
C          144.05646443280347       -0.08365916533270       -0.00547773634537
C          149.19724297206119       -0.05207749800884        0.02483163690431
C          150.42118732767062       -0.03908791930917        0.02537606391480
C           87.68685794419183        0.01401259440069       -0.06685047614553
C           88.31754284082528        1.01832490126593       -0.82662732034186
C           87.67278068076455        2.04916080398475       -1.55762608307046
C           88.63932867451899        2.79356358610335       -2.17678500627081
C           89.90289517598924        2.23126251038991       -1.84772214905306
N           89.65841353414143        1.16892925799934       -1.02037845492437
C           91.16502896149815        2.67705153085341       -2.26152075985858
C           91.18342519081465        3.82636699487120       -3.19706268696513
C           91.81733532815149        5.01952207512437       -2.83662333843271
C           91.83816673883646        6.09507273771689       -3.70560578182742
C           91.22366243701306        5.97539134942407       -4.94886047509448
N           91.24497504526714        7.10073677947699       -5.86684221704006
O           90.69343177015070        6.96419155218901       -6.92865472741663
O           91.81232385373310        8.10092844947779       -5.50941213381911
C           90.58885397685945        4.79607780323373       -5.32792780222660
C           90.56896048170573        3.72829519870109       -4.44927253407869
C           92.38965470458722        2.13230429543154       -1.87027690423058
C           93.67550134354430        2.58345774897835       -2.37313286463900
C           94.61086131423782        1.82870291533446       -1.76110648616807
N           92.56423179826618        1.10787499149438       -0.99116818298153
C           93.89484386608822        0.91220866069728       -0.89554372022615
C           94.54863204351845       -0.02845650331414       -0.07430433624719
C           93.91840934617063       -0.97931076264962        0.75186767014525
C           94.56405028111853       -1.91220904862150        1.60380984664588
C           93.59745903740736       -2.66558482587607        2.21166748727426
C           92.33284920396943       -2.21927130817689        1.73946423837109
N           92.57728532393077       -1.19150176456385        0.86916900032046
C           91.07058717917232       -2.70812491533535        2.09939342484226
C           91.05265748970949       -3.85762996655074        3.03476405202264
C           91.65863163636159       -5.06708159238245        2.68098603244489
C           91.64377530931777       -6.14197872507775        3.55107081316186
C           91.02243300254457       -6.00466780298326        4.78899764197456
N           91.00899283444906       -7.12868776533288        5.70889805174589
O           90.45256634074462       -6.97705480433853        6.76598820626959
O           91.55602838806111       -8.14244000665590        5.35795915767193
C           90.41491545861608       -4.80890210809956        5.16133172139411
C           90.43055433604074       -3.74193968331661        4.28171684395533
C           89.84555847315742       -2.20617192262917        1.65473232852843
C           88.55913993699355       -2.78529373138520        1.99994395065334
C           87.62363712986586       -2.02544324075305        1.39438688534803
C           88.34003161605331       -0.99156264732238        0.67361345470705
N           89.67145047725975       -1.13287430084893        0.83641031535721
H           86.60589484374272        2.19822991006049       -1.59576104872979
H           88.49131856468254        3.66167812220189       -2.79796126434278
H           90.37729821250259        0.58278459839503       -0.60938282338403
H           92.28171385895847        5.10381637956972       -1.86109424132228
H           92.32182486172361        7.02534947335896       -3.43295791634957
H           90.12222384329415        4.72676680103861       -6.30319501142533
H           90.09010541858935        2.80010202781873       -4.73874160503986
H           93.82106911679050        3.36068287828153       -3.10554262909061
H           95.68256114353998        1.86255893960710       -1.87337669735637
H           95.63149060350470       -1.98699486149980        1.73371881155987
H           93.74620177026091       -3.45368064477662        2.93148834654235
H           91.85796231000302       -0.66303540617550        0.38692674837833
H           92.12755374821045       -5.16605644828010        1.70890538837414
H           92.10472208089914       -7.08505440291619        3.28305350193276
H           89.94130423268555       -4.72669487696936        6.13220876866529
H           89.97211016700142       -2.80156837045047        4.56446281582950
H           88.41341901451892       -3.66233347856145        2.60925990342987
H           86.55149725945623       -2.13714201137518        1.41097663352199
C          103.72161116609466       -0.04645953702518       -0.06086643820451
C          104.34758155180747        0.95182067298399       -0.83275796953814
C          103.69735300208681        1.96684520696374       -1.58090846346049
C          104.66056636918313        2.71459126272137       -2.20113267260312
C          105.92750559725610        2.17019577515827       -1.85544959054213
N          105.68802809456459        1.11433363743457       -1.01819077909402
C          107.18775740515497        2.62639133200865       -2.26285878887551
C          107.20023520844744        3.76811926565340       -3.20803726706150
C          107.81075363714501        4.97403462746070       -2.85011887572884
C          107.82385127386462        6.04287997115191       -3.72757360517848
C          107.22565523964217        5.90320400047315       -4.97664130260228
N          107.23856905731375        7.02174823714106       -5.90329671940089
O          106.70119948484059        6.86779637953434       -6.96988814355679
O          107.78536677319539        8.03384854245362       -5.54749395511666
C          106.61489174349060        4.71060416662450       -5.35350757508790
C          106.60217105647506        3.64973816750068       -4.46634618096626
C          108.41512402599132        2.09813061652144       -1.85810421521569
C          109.69969509326251        2.55991781824672       -2.35420895288282
C          110.63827154484697        1.81641224092230       -1.73337294985195
N          108.59377468657848        1.07986623794291       -0.97266360850389
C          109.92553010756572        0.89663830596021       -0.86857434259525
C          110.58293591786953       -0.03644159377824       -0.04160069782058
C          109.95681678272706       -0.98780368490019        0.78722789420137
C          110.60664234690441       -1.91384216760181        1.64338917914995
C          109.64349431847883       -2.66982353820903        2.25360278972915
C          108.37704041214137       -2.23169201043904        1.77898402781228
N          108.61668821048393       -1.20642203028838        0.90452213055917
C          107.11703557653658       -2.72474122324597        2.14162928635035
C          107.10504026348924       -3.87180810212866        3.08028823776263
C          107.71228748382181       -5.08044418364923        2.72594492559949
C          107.70121027011888       -6.15479753265785        3.59673175432363
C          107.08263363745020       -6.01756072988178        4.83603771406822
N          107.07179684958271       -7.14160770839814        5.75604368344206
O          106.51754486570194       -6.99024694619146        6.81425917946299
O          107.61831180350144       -8.15514784912171        5.40372407742394
C          106.47490413686819       -4.82223356485218        5.20937361221818
C          106.48659418216099       -3.75581247092095        4.32894547004293
C          105.88975903840718       -2.23128617033643        1.69452952080141
C          104.60582072080854       -2.81238727660871        2.04560906209820
C          103.66717653580260       -2.06370679667971        1.43106646247140
C          104.37929675541827       -1.03505165365509        0.69860283174612
N          105.71087807244692       -1.16711248365609        0.86494598628776
H          102.62929011949190        2.10405928019515       -1.62885316174551
H          104.50812098690511        3.57373596603771       -2.83359051333410
H          106.41005549774729        0.54090140950431       -0.59496384462326
H          108.26262467713171        5.07357479246040       -1.87016323686667
H          108.28888722319104        6.98321015401145       -3.45701611635063
H          106.16075728789477        4.62586200137500       -6.33344220334532
H          106.14158368004439        2.71158783672643       -4.75333563615590
H          109.84227073566780        3.33608933560827       -3.08832806963638
H          111.71028841068456        1.86007737586200       -1.83896706488518
H          111.67435959357623       -1.98259990737010        1.77432299191477
H          109.79564050144964       -3.45437971766686        2.97657600178173
H          107.89492623456282       -0.68423375542348        0.41909259885815
H          108.17899810010915       -5.17923365147994        1.75277817997129
H          108.16271244021517       -7.09742712026472        3.32810085355622
H          106.00384754500732       -4.74004236343377        6.18150009832772
H          106.02755388073633       -2.81590652136023        4.61226096381393
H          104.46375314625530       -3.68298121138683        2.66495119614073
H          102.59552767242447       -2.18013609719688        1.44817652272691
C          119.75564869790649       -0.03371952155310       -0.04260275573096
C          120.38086743687538        0.96285678453350       -0.81722356285580
C          119.73015294125818        1.98141495808035       -1.56017299542685
C          120.69256549943670        2.72610408241942       -2.18525516566176
C          121.95941173310260        2.17605545077711       -1.84815101162444
N          121.72075971897857        1.12019003426035       -1.01058666674419
C          123.21896121696167        2.62710955922276       -2.26311549104229
C          123.23036559114969        3.77070325041746       -3.20605406923152
C          123.84846171688125        4.97309642791550       -2.84930068531034
C          123.85994884598573        6.04417769936665       -3.72403747941599
C          123.25246523217068        5.91028218319724       -4.96924659665858
N          123.26329423487776        7.03132880282422       -5.89292228086788
O          122.71737863782612        6.88260863489255       -6.95590433345092
O          123.81685480593075        8.04016734417568       -5.53833215439044
C          122.63425972401451        4.72118364024312       -5.34500693051929
C          122.62327012952234        3.65803213340392       -4.46054665826809
C          124.44659324259591        2.09262161959060       -1.86715686084092
C          125.72993311476951        2.54921692057694       -2.37112304112328
C          126.66923492959249        1.80109423344183       -1.75691343354972
N          124.62641535345470        1.07277446367718       -0.98385262140484
C          125.95808088644581        0.88380733107773       -0.88823324353744
C          126.61669803478823       -0.05218803151750       -0.06559351197087
C          125.99175451374909       -1.00186107428281        0.76613656177882
C          126.64307861042465       -1.93127401617702        1.61747053036191
C          125.68062983133647       -2.68306992634988        2.23396254788957
C          124.41305207598577       -2.23894849527346        1.76809917375001
N          124.65145099179652       -1.21478348563037        0.89205090262223
C          123.15317075125266       -2.72562887180904        2.13986118962000
C          123.14162213438081       -3.87115857041587        3.08039619263576
C          123.73982461105666       -5.08379372851087        2.72442090283070
C          123.72840045402199       -6.15642140359019        3.59735846839442
C          123.11871385093517       -6.01340668407092        4.84041553380629
N          123.10740422515680       -7.13565252732355        5.76258918859889
O          122.56118438252943       -6.97903211604701        6.82421600102283
O          123.64539730839829       -8.15312561837560        5.40849529373090
C          122.52015799186140       -4.81398331277787        5.21544265410356
C          122.53203854467245       -3.74936125786685        4.33287949080079
C          121.92532852013952       -2.22669017038597        1.70067632959264
C          120.64109911280754       -2.80196891633334        2.06028013502335
C          119.70188630955950       -2.04985108577559        1.45087622104191
C          120.41386178818485       -1.02465292993878        0.71337405021874
N          121.74581400994910       -1.16224391161111        0.87153126730605
H          118.66237646718326        2.12303740876038       -1.60127046137216
H          120.53970693655134        3.58670356481986       -2.81563287904419
H          122.44304501152500        0.54329560695853       -0.59253722117222
H          124.30746108205382        5.06816930656679       -1.87222079392677
H          124.33071501925906        6.98186632287738       -3.45424489302936
H          122.17299060740032        4.64092011005728       -6.32198221999687
H          122.15680613564493        2.72256813299844       -4.74680018411224
H          125.87111762288174        3.32535127026043       -3.10555399845359
H          127.74073852590395        1.84011886725798       -1.86935373919509
H          127.71132132265438       -2.00500278036720        1.74116334665617
H          125.83406460193375       -3.46861213387380        2.95558867726018
H          123.92877942199338       -0.68901597446246        0.41185802745660
H          124.19953937330659       -5.18709682940945        1.74839710977120
H          124.18280699613805       -7.10215206048392        3.32752881997197
H          122.05591452292927       -4.72730291817568        6.19045311212012
H          122.08002243443386       -2.80638371020499        4.61728629933557
H          120.49914852142295       -3.67146679989898        2.68118753132232
H          118.62987786912068       -2.16166144028762        1.47482380337814
C          135.78964580422277       -0.07331414615533       -0.05733493615258
C          136.42117826909600        0.92652851256604       -0.82239539685395
C          135.77649006641616        1.94770242251732       -1.56710411498494
C          136.74406366842052        2.69711549486219       -2.17823728979396
C          138.00843293172667        2.14786831620624       -1.83019952178673
N          137.76271976410865        1.08691927801551       -1.00104225019335
C          139.27142206100422        2.60522123048086       -2.22689723748766
C          139.29054257984575        3.75627565357235       -3.16054163729295
C          139.90149784744801        4.95729993436370       -2.78717369031278
C          139.91941252269993        6.03573450269958       -3.65269806260754
C          139.32548331080653        5.91078504711317       -4.90536813178559
N          139.34255899407916        7.03971077540006       -5.81921844758723
O          138.81027896602055        6.89774341107671       -6.89006753233717
O          139.88699206859047        8.04799883702987       -5.44928601892125
C          138.71472380320697        4.72318546270832       -5.29771936539571
C          138.69734791104383        3.65254109056868       -4.42245710989134
C          140.49609126861739        2.07134072581239       -1.82017308443931
C          141.78385706527249        2.53678840908847       -2.30446023129537
C          142.71825159980037        1.78594011865118       -1.68618988465338
N          140.66857971197044        1.04395535634067       -0.94457041937717
C          141.99994583444015        0.85766130014318       -0.83525773730459
C          142.65155903981855       -0.08753912034560       -0.01804481825476
C          142.01998758489992       -1.04737972116312        0.79633940882184
C          142.66430653405646       -1.98422505615122        1.64489953113216
C          141.69677021305884       -2.73908798604679        2.24951928297173
C          140.43285812117691       -2.28979557831416        1.77853184506618
N          140.67847731439383       -1.26036664277493        0.91083951521105
C          139.16956654629783       -2.77514413831969        2.14062965999265
C          139.14849696071408       -3.92049593280160        3.08113730540825
C          139.74677292686084       -5.13509811305389        2.73219998693716
C          139.72527823630793       -6.20626232071925        3.60681142276136
C          139.10524879833687       -6.05993162502458        4.84438109764458
N          139.08332737912329       -7.18046054303238        5.76824853885016
O          138.52857384178577       -7.02066866411827        6.82503369621062
O          139.62200396992372       -8.19987431931199        5.42070134591487
C          138.50630608113440       -4.85848797313487        5.21236718640390
C          138.52849185941452       -3.79540864641095        4.32828190004505
C          137.94546134226320       -2.27310043215482        1.69447881027906
C          136.65822879957210       -2.84878482756119        2.04290307500719
C          135.72391306824647       -2.09424588226124        1.42904935995256
C          136.44183953701446       -1.06711496740390        0.70003572943644
N          137.77254163464184       -1.20597452594303        0.86745857329242
H          134.70894079950679        2.08755449490868       -1.61885566811006
H          136.59618335217695        3.56052845366553       -2.80594179716456
H          138.48150307616990        0.50934578472266       -0.57791162431369
H          140.34965096338632        5.04542914226914       -1.80442752457686
H          140.38476986044685        6.97232287561970       -3.37001068091839
H          138.26397578165682        4.64997513613460       -6.28014635380133
H          138.23663471652873        2.71827175186186       -4.72164950829071
H          141.93133234807124        3.32024208884239       -3.02981313061282
H          143.79084579540691        1.82958414714771       -1.78554726903832
H          143.73161436922436       -2.06008547442264        1.77532848455792
H          141.84444967276423       -3.53000301026004        2.96646868429865
H          139.95975182059365       -0.72954906850315        0.43026453444474
H          140.21435279706520       -5.24131007173890        1.76023921391301
H          140.17964193355735       -7.15354351439140        3.34239836578399
H          138.03373726807644       -4.76912511695940        6.18312137566574
H          138.07626770478763       -2.85088966352383        4.60720676093710
H          136.51121505977511       -3.72045796998873        2.65956917715820
H          134.65170476342414       -2.20563807877236        1.44469648548547
