310
 energy: -467.682172959744 gnorm: 0.000794193017 xtb: 6.5.1 (b24c23e)
C           46.52523782826514       -0.15563849840556       -0.02155246508708
C           47.15197572109946       -1.39438639533260       -0.06759237478818
C           46.52844262832590       -2.67285939196340       -0.13128605721319
C           47.51275761971563       -3.62048766599571       -0.16096669456290
C           48.76908509499065       -2.95102050335578       -0.11496803847233
N           48.50078625808408       -1.61257469393213       -0.05993467821677
C           50.03815563219219       -3.53385358699317       -0.11926203971909
C           50.08794516661909       -5.02388684324656       -0.19202089216464
C           50.12410755321428       -5.65806511516780       -1.43718530784023
C           50.10876739459388       -4.83791854348102       -2.69963198028595
C           50.18000727954102       -7.04566080993527       -1.49617156839923
C           50.20197382827076       -7.81002983245619       -0.33429697160183
C           50.24728802055536       -9.31232062771221       -0.41053712669890
C           50.16336550493937       -7.16841177162587        0.89942964473410
C           50.10727505752736       -5.78204283432573        0.98206351266961
C           50.07224686904985       -5.09488780916724        2.32117212244931
C           51.24857052889212       -2.84407889539890       -0.06740281937313
C           52.54371002332650       -3.50032759556465       -0.06633962797847
C           53.46854245194709       -2.51910313774671       -0.01641689562339
N           51.40734533398389       -1.49287945576648       -0.01736790723569
C           52.73610559986027       -1.26725847021036        0.01047913181636
C           53.36983732675327       -0.00872026209786        0.03987859615100
C           52.71871835181220        1.23807842495611        0.05868498508300
C           53.33699559492307        2.51662961982477        0.09492202550768
C           52.34895727997266        3.46163021459636        0.12350810615934
C           51.09640964860448        2.78682423696083        0.10344190589881
N           51.37192224528675        1.44566938155922        0.06273210107165
C           49.82836772621263        3.37028482714094        0.12492620076351
C           49.78578848896530        4.86104111886327        0.17897783352713
C           49.80306425331340        5.60342242347785       -1.00525985741778
C           49.85467146424508        4.89791870173910       -2.33427700438639
C           49.77267404668836        6.99162524201348       -0.94222760982593
C           49.72677297219442        7.65074567583832        0.28188159140607
C           49.67788332572741        9.15384453767472        0.33666538541024
C           49.70644362449409        6.90187252583497        1.45392856228803
C           49.73602951290935        5.51278206585642        1.41457732757507
C           49.71683664041534        4.70994600211423        2.68804861956175
C           48.61656781684182        2.67781206515610        0.09981521500705
C           47.31518667229815        3.32695764184624        0.11864234932373
C           46.39633668971221        2.34078319814922        0.07745686850969
C           47.13618107163563        1.09109067572036        0.03350424950221
N           48.46978489415415        1.33223443115824        0.04942601127978
H           45.44028765183864       -0.17266323242515       -0.03209974105826
H           45.46204376600856       -2.83204098348772       -0.15176608868818
H           47.39266360328075       -4.69092263208005       -0.20927689841499
H           49.20585971048347       -0.88444068443077       -0.02018390557819
H           49.19840632850466       -4.23755995985159       -2.75114920472057
H           50.15509467455135       -5.47791817305418       -3.58022906733966
H           50.96011093232622       -4.15493567314255       -2.71769250800410
H           50.21085225553892       -7.53734151178105       -2.46303024142771
H           49.23186302799495       -9.71552192484942       -0.41156603994235
H           50.74330741230701       -9.64021914426716       -1.32436158506935
H           50.77607869411025       -9.72877675895283        0.44720703803206
H           50.18108161311053       -7.75670854288844        1.81108796680365
H           49.15971020835410       -4.50383715527092        2.42032648215274
H           50.10773128659815       -5.82123318433890        3.13256218981391
H           50.92152535738872       -4.41642277382117        2.42099095745709
H           52.69551643879442       -4.56729765411969       -0.09995271021116
H           54.54327211467200       -2.60592554649119       -0.00029940735853
H           54.40263878994803        2.68032738002738        0.10046963853072
H           52.46690139908598        4.53268118945569        0.15692147095090
H           50.66890724585897        0.71446731371708        0.04221623106947
H           49.83296608257186        5.61331595058379       -3.15581534563166
H           50.76698694212836        4.30336585725950       -2.41288578585701
H           49.00509652005758        4.22021684917352       -2.43665915551199
H           49.78767564773414        7.56755843741877       -1.86178858721592
H           50.13613000277739        9.52431109960666        1.25397416742340
H           48.63957861540901        9.49308224518461        0.31471963030215
H           50.19512807193182        9.59067991833057       -0.51794616385592
H           49.66992419852652        7.40742374568369        2.41340829985588
H           49.68248271816242        5.36309729695015        3.55949526997777
H           48.84516134348372        4.05315132523135        2.70839464185329
H           50.60823035591802        4.08329542528253        2.75512117558922
H           47.15912353059920        4.39339946919884        0.15649666871473
H           45.32030783929613        2.41882678461286        0.07520201857195
C           93.83430992473876        0.12605364191078       -0.04672968837956
C           93.21335409639910        1.36114980097428       -0.18255557191920
C           93.84305153627602        2.63115168413969       -0.31578321993204
C           92.86323246015283        3.57740897439045       -0.42705956768028
C           91.60362487480693        2.91533612913024       -0.36649047098563
N           91.86549228871303        1.58282939603099       -0.21719667895565
C           90.33733869847886        3.49897054824778       -0.44807309064919
C           90.29722748307719        4.98179301782629       -0.61457888121929
C           90.31948778048354        5.54202696339456       -1.89489899826935
C           90.38512552756153        4.64906868838647       -3.10528485855050
C           90.27542474308171        6.92406313167505       -2.03716690093499
C           90.20844814485721        7.75537641351459       -0.92394747434691
C           90.17808819117123        9.25085404561171       -1.08938958398755
C           90.18861391626854        7.18699825550415        0.34556713354027
C           90.23155466110754        5.80767894471499        0.51132725890601
C           90.20383606090461        5.20057258407538        1.88873323932628
C           89.12309649435755        2.81703151998977       -0.38537865088895
C           87.83117818452482        3.47214111829883       -0.48395404432008
C           86.90121518120955        2.50059747285807       -0.37349843236479
N           88.95718930337937        1.47548459650429       -0.22150397812324
C           87.62741721329375        1.25599831890224       -0.20712931432957
C           86.98762091068848        0.01109574162789       -0.03981187490912
C           87.63386509071768       -1.22793546833115        0.12578973774400
C           87.00968351295404       -2.49375134318857        0.28713925715531
C           87.99327320088662       -3.43819751016710        0.39093352791086
C           89.24870657944584       -2.77540833507100        0.29683710017638
N           88.97951185097160       -1.44138829891648        0.14079991960536
C           90.51368774787956       -3.36369715541437        0.34819418098236
C           90.54736153484529       -4.84723076711821        0.50606764079861
C           90.51465231569598       -5.66825842900153       -0.62483971851921
C           90.45733917330578       -5.05450069371293       -1.99843903458490
C           90.53470680571601       -7.04910249555039       -0.46774209178280
C           90.58524373477597       -7.62378352386180        0.79804382121306
C           90.62186244617106       -9.12008376971491        0.95428851532402
C           90.62134190690897       -6.79716101177794        1.91620923013604
C           90.60236208565229       -5.41370912048676        1.78266731923008
C           90.63819890960539       -4.52599159288769        2.99807995860679
C           91.72894927827153       -2.68255854468655        0.26177203416664
C           93.02693808440368       -3.33572386123970        0.32341529724520
C           93.95081179743364       -2.35929595429478        0.21566308796242
C           93.21733411214890       -1.11181899901166        0.08596755334366
N           91.88253806934436       -1.34462777610051        0.11665534442675
H           94.91936867818157        0.13851378479060       -0.04589707205759
H           94.91025057389282        2.78603350149221       -0.32367118926589
H           92.98865526520032        4.64221236834862       -0.54124716949861
H           91.15694548602087        0.86071837695579       -0.14383665683508
H           91.30029202280046        4.05399571293727       -3.08835722906771
H           90.36754884960661        5.23571613067494       -4.02328972774550
H           89.53901438587333        3.95948272380553       -3.11353800833303
H           90.29011255053855        7.35841945115101       -3.03147277586088
H           91.19639699125406        9.64665540824008       -1.08096060823256
H           89.71453304301032        9.52779146680846       -2.03652403848974
H           89.62554864778375        9.72038493914112       -0.27514499085099
H           90.13558119864513        7.82771814283134        1.21974699623827
H           91.10106253742792        4.60203976427305        2.05772861855244
H           90.15058852243355        5.97420372271672        2.65414204754228
H           89.33920750789223        4.54279009603968        1.99514782869644
H           87.68492023385976        4.53174455498412       -0.61993509590620
H           85.82678499722857        2.58959391951090       -0.39768556086391
H           85.94340080166110       -2.65047616404566        0.31664883172535
H           87.87025426266591       -4.50121948560687        0.52135099803256
H           89.68572618116292       -0.71938002400206        0.04458194518649
H           90.46487442498137       -5.82443777390367       -2.76938128830340
H           89.54990169770171       -4.45768795510766       -2.10968943958750
H           91.31220189269943       -4.39380461631742       -2.15418842279085
H           90.50749379320568       -7.68609342967318       -1.34582152764375
H           90.16935645582596       -9.42333953718614        1.89871659266548
H           91.65694517755301       -9.46959370429024        0.94586139316255
H           90.09259723873943       -9.60897594906764        0.13599059047076
H           90.66167128149931       -7.23660068064514        2.90755774271812
H           90.67549969408576       -5.11830986571659        3.91183625226710
H           91.51459072544846       -3.87596938126690        2.96624960910328
H           89.75183588565586       -3.88947492679444        3.02938361311414
H           93.17744986867550       -4.39785413868087        0.43437334938261
H           95.02642531403407       -2.44277203598182        0.21911485610102
C           55.99792832955135        0.02600790003647        0.04619306450081
C           54.77624126132466        0.01445369693509        0.04226327541060
C           57.34801789742828        0.02951755266346        0.04533407192865
C           58.56989465322609        0.02648859388052        0.03544472689468
C           69.50538560940646       -0.04400976002855       -0.03254396382417
C           68.28267617215946       -0.04493613538930       -0.01715866367136
C           70.85313799335168       -0.04954158344137       -0.04327846860096
C           72.07587501688855       -0.05057987043208       -0.05525556006662
C           83.01087567581018       -0.05493790589215       -0.03790029878250
C           81.78886060765905       -0.07518128392457       -0.04069677385044
C           84.36020650353413       -0.03626720447026       -0.03475941544719
C           85.58199288515794       -0.01045316557714       -0.03708025362534
C           59.97556358489531        0.01429601559830        0.02809576927494
C           60.60170990783095       -0.94255256019921        0.84906277775201
C           59.96068261194914       -1.89078641295740        1.68875741264056
C           60.93273936916887       -2.61949747530679        2.31853749595048
C           62.19561306784038       -2.13573308135079        1.88013002228997
N           61.94462446208483       -1.12372929309290        0.99261217866992
C           63.45367377305652       -2.59717709588283        2.27720864489402
C           63.46360182576439       -3.71879914970683        3.26243233376351
C           63.44108702546544       -5.04198932491284        2.81159710356029
C           63.40824896429911       -5.33243468170472        1.33475853777202
C           63.45228676705092       -6.07904915169111        3.73648506698160
C           63.48452008303362       -5.81824223391901        5.10288682268042
C           63.51694641205021       -6.95288760077486        6.09090446561210
C           63.50725576881406       -4.49827378944124        5.53987609004487
C           63.49667408607250       -3.44496996934897        4.63247391012478
C           63.52129189830459       -2.01887880545307        5.11432436053829
C           64.68196139520010       -2.10835636341498        1.83850627904400
C           65.95837914870106       -2.63027999298202        2.29205323862460
C           66.91052356406806       -1.91564353299128        1.65643173774881
N           64.87865677154022       -1.09875550163565        0.94544262993357
C           66.21287154668190       -0.96174463157283        0.81647206455788
C           66.87956448608904       -0.03661194921402       -0.01318818401103
C           66.25229015031360        0.90292211689114       -0.85432647871480
C           66.89277425908693        1.83748149970280       -1.70905994817077
C           65.92012485836270        2.55285005596081       -2.35321822828099
C           64.65766596372546        2.07494799986899       -1.90739131944234
N           64.90953704030289        1.07913694981973       -1.00183523256735
C           63.39979652420892        2.53193583852213       -2.30952213950642
C           63.39321495450647        3.62165163163407       -3.32980153019248
C           63.41384988347248        3.29913765596294       -4.68964301272239
C           63.43638622879183        1.85682847421299       -5.12077479516152
C           63.41164169889882        4.31916573902285       -5.63409119122283
C           63.38875157260154        5.65389839540672       -5.24425534561264
C           63.40801549783786        6.75131375979947       -6.27376386052769
C           63.36826415508677        5.96320475532662       -3.88787321581198
C           63.36979738221148        4.95981282082300       -2.92627233524852
C           63.34612283665057        5.30265147965637       -1.46055125561838
C           62.17152556491052        2.06105389450542       -1.85076053152096
C           60.89500397834265        2.58617851849744       -2.30072270076668
C           59.94330918478817        1.89138589072346       -1.64303000427543
C           60.64098460483018        0.94164629318259       -0.79809640365881
N           61.97574275765605        1.06748517113970       -0.94066855281991
H           58.89245880334575       -1.99379234302104        1.79164574374060
H           60.79568628737610       -3.42123195719541        3.02605439937284
H           62.65802982986209       -0.58538739062650        0.51264656568668
H           62.51812785447418       -4.89236269879383        0.88102178369209
H           64.28179299905935       -4.89863042656471        0.84440501885046
H           63.40015455240747       -6.40609063544680        1.14927095931059
H           63.43482610430146       -7.10611480996748        3.38673427690197
H           63.14678519426281       -6.63251879100637        7.06489451794298
H           62.91087251586040       -7.78888893308493        5.74028656841854
H           64.54261161731877       -7.30786507887890        6.21568829951128
H           63.53270691846132       -4.28486049350250        6.60349227612010
H           62.63279822548787       -1.48651295283130        4.76936657165846
H           63.55338351165319       -1.97627348007486        6.20259593893020
H           64.39601150205117       -1.50017191594802        4.71765759760543
H           66.08026335910188       -3.43433233740996        3.00000762470325
H           67.98271836870276       -2.00498591648454        1.72941828845784
H           67.96093121451898        1.94119431788956       -1.81188676571853
H           66.05650923093464        3.34392663471375       -3.07271947686127
H           64.19718086372897        0.54743704791493       -0.51296431554870
H           63.41440608335209        1.77505307727358       -6.20703787754089
H           62.57555107199348        1.32505632418824       -4.71133697602946
H           64.33867927549484        1.36506659760910       -4.75187258036620
H           63.42648835890160        4.06791589487135       -6.68960351594685
H           63.00248438663286        6.40160201563394       -7.22331564906452
H           64.43491040146361        7.08341632745785       -6.44361657276429
H           62.82675908572376        7.60987503364260       -5.93618244879151
H           63.34956961379900        7.00203157021431       -3.57485186147615
H           64.22686761970245        4.89414348887420       -0.96138063417842
H           63.33033758841179        6.38213985424675       -1.31351804413094
H           62.46317043791501        4.87162880724520       -0.98497095743926
H           60.77285902852158        3.37788572952873       -3.02242707671565
H           58.87128296815017        1.98872384534675       -1.70747343762396
C           73.47889283683861       -0.06322471555337       -0.06257032365214
C           74.10506210074513       -0.99902136034031        0.78364176068205
C           73.46315228570923       -1.92863319493920        1.64258190938449
C           74.43453086370047       -2.65367779506595        2.27783166502897
C           75.69761031550718       -2.18604461565479        1.82300946374975
N           75.44742862952731       -1.18468683367179        0.92312159518907
C           76.95438895944265       -2.65797117282283        2.21168849143019
C           76.95694428632845       -3.77287915927664        3.20441982752059
C           76.87263101852835       -5.09778758976882        2.76656900867291
C           76.78996454935397       -5.39963831198907        1.29389876490905
C           76.86588469471332       -6.12686171636672        3.70061879454764
C           76.93990683589750       -5.85616970967227        5.06331908527425
C           76.94735794309828       -6.98193511805136        6.06191602553594
C           77.02614699833178       -4.53446113222885        5.48733143972847
C           77.03500535869540       -3.48925019826827        4.57085583208405
C           77.12493668421637       -2.06125404095408        5.03905426499380
C           78.18382788296067       -2.18170984675809        1.76196154315516
C           79.45921424955793       -2.71912294772406        2.20024219450860
C           80.41268523356760       -2.00170906711186        1.56970994041915
N           78.38207090637539       -1.16389174615454        0.87926087229690
C           79.71705093120313       -1.03013887668629        0.74842911960289
C           80.38394144476148       -0.08009513532103       -0.05101238760026
C           79.75825885419123        0.87639346999835       -0.87330369142128
C           80.40046372994779        1.83471462175878       -1.70034830565384
C           79.42949953964288        2.54594652753940       -2.35150654335301
C           78.16624104556315        2.04192487764035       -1.93802690187112
N           78.41575111798927        1.03709989751267       -1.04195843966762
C           76.90933043507137        2.47937368427188       -2.36496673670432
C           76.90343254258028        3.57964242653583       -3.37394751667731
C           76.94221015581287        3.27273317289116       -4.73704089046910
C           76.98674949040181        1.83557560837712       -5.18331718434783
C           76.93448425546958        4.30312278445786       -5.67004269568197
C           76.88802734347101        5.63299901689511       -5.26555568399529
C           76.89897278536689        6.74186957490225       -6.28287664578478
C           76.85058356057310        5.92672889404281       -3.90615754024938
C           76.85721839929850        4.91264369891911       -2.95575396334545
C           76.81244791083529        5.23865620755170       -1.48669121733427
C           75.68004899582331        1.98326043712209       -1.93775490380874
C           74.40473183967053        2.48653677940331       -2.41471347890043
C           73.45114910214133        1.78185899727711       -1.77010967235150
C           74.14691938702590        0.84909556602444       -0.90525557759789
N           75.48135057884561        0.98981260953596       -1.02713016420108
H           72.39496418379414       -2.02342106359717        1.75338016877146
H           74.29668356910160       -3.44255492439668        2.99944561333215
H           76.16062312591399       -0.65693026656477        0.43123333946917
H           75.88441823586402       -4.96320806597188        0.86776842014852
H           77.64578481241064       -4.96994253778284        0.77010779909467
H           76.77462708050706       -6.47471076934008        1.11738460093784
H           76.79938430911312       -7.15522692344670        3.36070138271564
H           76.59105086090611       -6.64212784254099        7.03453300837120
H           76.31719711755986       -7.80468933275276        5.72274604007719
H           77.96382091938877       -7.36286840290360        6.18538008439008
H           77.08457278299380       -4.31348092562656        6.54809636109245
H           76.25937078392732       -1.49312239660256        4.69301134271801
H           77.16466877749518       -2.01011814905653        6.12670027571413
H           78.01992439958320       -1.58561351090083        4.63365789266368
H           79.57933116412688       -3.53491156267630        2.89499837234867
H           81.48463724873990       -2.09914544478929        1.63565111043854
H           81.46871278424902        1.95500782992994       -1.78193904814186
H           79.56761261043509        3.34952996744930       -3.05669871260552
H           77.70186274664727        0.48727143682214       -0.57594563033863
H           77.00526547380321        1.76586816453829       -6.27049094501009
H           76.11273055475523        1.29690391433877       -4.81248040724538
H           77.87589198142564        1.34220888012681       -4.78610071906502
H           76.96281346683904        4.06424123233875       -6.72814335220002
H           76.49639548863995        6.39934720200854       -7.23632992426278
H           77.92320923326358        7.08392269090174       -6.44891985095750
H           76.31077275591356        7.59199467980377       -5.93609233069270
H           76.81334349297984        6.96153017023598       -3.58166761832961
H           77.69627732975238        4.84233962589602       -0.98311037879472
H           76.77363025267690        6.31591643280073       -1.32804962877816
H           75.93369404061738        4.78478408598788       -1.02478722047165
H           74.28440578463318        3.27271897845646       -3.14272352744255
H           72.37914992077091        1.86374113752066       -1.85392370800343
