181
 energy: -330.049175731213 gnorm: 0.000604173207 xtb: 6.5.1 (b24c23e)
Cu          33.75211302046981        0.03774593206782        0.02230153067318
C           30.34677914724547        0.05856127606060        0.10372674913158
C           30.98342383545944        1.27263486618488        0.31209108860330
C           30.30981274393859        2.52369361699133        0.51287114275052
C           31.26974637396381        3.46727063856078        0.67582803513440
C           32.53950593927159        2.79792225289819        0.58884478078053
N           32.33452378426389        1.46793395481154        0.36013403592241
C           33.78559730439702        3.41958075746647        0.70014301018826
C           33.80021634303024        4.87572166312277        0.98224439218414
C           33.24925844621956        5.37484480193997        2.16468795398365
C           33.26019117753356        6.73265470921039        2.42915586765345
C           33.82035439911803        7.62176455088124        1.50705676519301
C           33.82812293348596        9.02007535108363        1.77368957377863
N           33.83199425907300       10.15039456668775        1.98934497227128
C           34.37177555457534        7.12744309521878        0.32124918361390
C           34.36287268448395        5.76780560305665        0.06650485732072
C           35.01821999618075        2.77726504080211        0.56540871973528
C           36.29607296899709        3.40481550285802        0.74989782269957
C           37.24054334185958        2.45141893728250        0.54763445198658
N           35.20426306480525        1.45377121442925        0.26595661588866
C           36.54751705092657        1.23544876889938        0.24453418458949
C           37.18113284002087        0.01354198350014       -0.04214044527493
C           36.51986909475681       -1.19733800551473       -0.31214172940690
C           37.18363984555416       -2.41971225872756       -0.65221811953411
C           36.21868103195375       -3.35766686996166       -0.82850449839004
C           34.95779350852989       -2.71512450658803       -0.58716648602201
N           35.17377998726057       -1.39690771172056       -0.28433659947686
C           33.71202520252920       -3.34079930037352       -0.67158227369666
C           33.69429824526204       -4.79400547306131       -0.96707690106952
C           33.07185959659186       -5.27482127429092       -2.12145101905628
C           33.05261098376069       -6.62969661117736       -2.39989471576660
C           33.65456332680151       -7.53453901201888       -1.52041526940714
C           33.63229062358408       -8.92986117736302       -1.80138589767828
N           33.61258194460165      -10.05770347936666       -2.02874772432870
C           34.27731504085371       -7.05880270127776       -0.36265649242980
C           34.29733783649529       -5.70204785894018       -0.09360612904068
C           32.48041095974731       -2.70477951817660       -0.49632606616171
C           31.20002001265520       -3.35896082528154       -0.52122519821021
C           30.26069311974080       -2.40500453250051       -0.30671865465219
C           30.95817288216729       -1.16251545006967       -0.13691983139232
N           32.30282324133920       -1.37347253281561       -0.25290231067024
H           29.26204287038000        0.06482134756728        0.13073170624413
H           29.23877421951807        2.65092196660795        0.51558273883309
H           31.13707140400088        4.52603130415637        0.82990307427768
H           32.82408267008230        4.68743403923862        2.88728166461451
H           32.83590595732334        7.11197900040564        3.35141397959142
H           34.80396917221771        7.81404401397121       -0.39725310907354
H           34.78094108724872        5.38907204835160       -0.85937204223197
H           36.44708253112763        4.43854101130142        1.01564004101868
H           38.31269296282481        2.55185528869167        0.60265296430489
H           38.25137854586540       -2.53394096507271       -0.74985450884713
H           36.34524573160940       -4.39007325860889       -1.11152513379920
H           32.61431467500541       -4.57531093858207       -2.81194744006503
H           32.57234958747387       -6.99453514623714       -3.30028319653429
H           34.74204349803798       -7.75753548990747        0.32308191710197
H           34.77029923283211       -5.33813102847533        0.81155765676933
H           31.04706520391767       -4.41563026765863       -0.67076639242891
H           29.18948154640118       -2.51985348329962       -0.25544332424666
Cu          60.69646239970505       -0.00022373612806        0.04434930646606
C           64.10253342872872       -0.02309082109914        0.10453093283330
C           63.46547321246604       -1.22320071113272        0.38114141724359
C           64.13876755169456       -2.46240321855155        0.64642863882275
C           63.17860954247885       -3.39597351108511        0.85808636997482
C           61.90897791041436       -2.73185309407058        0.73556393642661
N           62.11433473967178       -1.41510909548290        0.44048843331647
C           60.66291469736021       -3.34877108664821        0.87027430411634
C           60.64847241753360       -4.78928122233615        1.22401985358715
C           61.18999089373359       -5.22620697953385        2.43510774056416
C           61.17759206370210       -6.56852724791774        2.76928819956318
C           60.62540142196082       -7.50451405488018        1.88975257175966
C           60.61502823707428       -8.88704827094137        2.22870510594799
N           60.60833164943411      -10.00426189229536        2.50428718896120
C           60.08432792318358       -7.07265217596888        0.67513884149055
C           60.09476785584378       -5.72796966022973        0.35048149742297
C           59.43032068707501       -2.71517945936173        0.69898444983576
C           58.15206901675666       -3.33711697650946        0.90019183581427
C           57.20767806590663       -2.39339748317720        0.65735302170922
N           59.24447013933924       -1.40463545171558        0.34762848295369
C           57.90092352026014       -1.18806642911447        0.31414852070434
C           57.26758899541858        0.02647146741646       -0.00004980427675
C           57.92761350873771        1.22944768223533       -0.30317379961424
C           57.26227363466568        2.44209733318667       -0.67441350456250
C           58.22725771902035        3.36837589157246       -0.90315614636402
C           59.49013994680921        2.72944077003868       -0.66178583751322
N           59.27484335100880        1.42511624340989       -0.30392473229517
C           60.73677302806990        3.34343065735148       -0.80110473359454
C           60.75587652082002        4.77875648927436       -1.17436955990951
C           61.35312185336128        5.18986227297723       -2.36835287154092
C           61.37226396759615        6.52661924451925       -2.72351110642810
C           60.79566166167523        7.48329710953940       -1.88274291005436
C           60.81656065005613        8.85997693810697       -2.24416626760931
N           60.83588403010388        9.97278188113276       -2.53616716479657
C           60.19928458713635        7.07759209885198       -0.68511974359635
C           60.17915830110194        5.73829391498128       -0.33917863919696
C           61.96883500621543        2.71077108059031       -0.61758332032465
C           63.25072107690371        3.35791558793718       -0.69589259059157
C           64.19011058833333        2.41366527733727       -0.44250893141993
C           63.49147929721170        1.18445739469416       -0.19721377335476
N           62.14602630492877        1.39338908807131       -0.30763292908041
H           65.18741797968647       -0.02996278247049        0.12468305973122
H           65.20977817172566       -2.58956808643910        0.65568578375191
H           63.31087354717750       -4.44540878878197        1.06669311721663
H           61.60879441343960       -4.50193283808237        3.12466802061151
H           61.59426674122115       -6.89926280849000        3.71346330982859
H           59.65868789161600       -7.79588958280509       -0.01058126422400
H           59.68465846508523       -5.39803673420825       -0.59736187773046
H           58.00071951431728       -4.36030304404818        1.20379351959646
H           56.13539514218088       -2.49274023815589        0.71154900135762
H           56.19338623865674        2.55731985334295       -0.75700380820442
H           58.09917731614202        4.39020954739156       -1.22160149929967
H           61.79072671166471        4.44957160838370       -3.02861350781316
H           61.83240938440700        6.83701300493671       -3.65431711331831
H           59.75472538772308        7.81686783205565       -0.02916356365027
H           59.72661080051013        5.42911946050607        0.59625915076243
H           63.40446698617163        4.40447083174583       -0.90423107807605
H           65.26223230244848        2.52733961212704       -0.41162792558619
C           39.80934037163463       -0.00216129442455       -0.06873388783606
C           38.58749509189746        0.00295741057169       -0.05952155907155
C           41.15933967249283       -0.00372356544664       -0.07427426107889
C           42.38128447741510       -0.00066657061393       -0.07506590449068
C           53.28722936625594        0.04539794145891       -0.03154273061563
C           52.06569951836966        0.04326236414702       -0.03759719952702
C           54.63832068482750        0.04299678950155       -0.02233715143826
C           55.85970945364576        0.03703169509368       -0.01391707628483
Cu          47.22310152019386        0.02183936706749       -0.05842778409450
C           43.78727415376159        0.00515739168557       -0.07177674572277
C           44.44249749090824       -1.16278414464589       -0.50107389918031
C           43.77194164414708       -2.36409430059614       -0.89861707511955
C           44.73352521238353       -3.25495677526076       -1.25090546173821
C           45.99840629444832       -2.59872752291709       -1.07772813879415
N           45.78817752217182       -1.32798358405645       -0.61332953173990
C           47.24327072179135       -3.18206459797301       -1.32378723075739
C           47.25204652569801       -4.55919771398114       -1.87538899299666
C           46.68203952897788       -4.82496077596281       -3.12253688599290
C           46.69313909170605       -6.10620694435164       -3.64393060178878
C           47.27243591435489       -7.15238167651516       -2.91971006547848
C           47.28466512450706       -8.47245560068260       -3.45235743942678
N           47.29421137426208       -9.53943321464811       -3.88320239208499
C           47.84051527633652       -6.89244104595305       -1.66901501522280
C           47.83139176805575       -5.60741498300302       -1.15682974475600
C           48.48073428697332       -2.57580668736263       -1.09575440426640
C           49.75376299672742       -3.15986061285263       -1.41046365307885
C           50.70393844205817       -2.26016651177120       -1.05016043606393
N           48.67472661040080       -1.32966473113650       -0.56310237175424
C           50.01832335382196       -1.11844225987223       -0.52332333500870
C           50.65831603456437        0.03820300055825       -0.04481250068866
C           50.00354539702972        1.18836956879874        0.42915045592288
C           50.67409802389701        2.33474014527932        0.96507257669459
C           49.71263854563168        3.22453467712396        1.32003797541230
C           48.44771381923942        2.63000849645106        0.99241964369349
N           48.65771430230703        1.38716652267025        0.45807674497789
C           47.20269491839387        3.22470424780314        1.21031268465085
C           47.19340552716632        4.60034981971051        1.76507378749874
C           46.60039089520872        4.85947137929924        3.00296103035339
C           46.59393432452253        6.13945675201533        3.52745143352134
C           47.17898946864645        7.19117895092729        2.81599180587764
C           47.17300731910842        8.50998682257008        3.35180125729950
N           47.16901819624545        9.57585977726347        3.78537753090195
C           47.77039329166357        6.93796188526844        1.57474475709751
C           47.77813895578593        5.65428531623929        1.05921170738164
C           45.96550334349659        2.63035786520980        0.95151264165074
C           44.69309643583029        3.27508529995332        1.11228193386040
C           43.74302651101681        2.37511114345040        0.75199958820461
C           44.42815690985058        1.17967192399612        0.36177005169068
N           45.77119464507700        1.35766496743744        0.48554692696574
H           42.70250919046322       -2.50177792331503       -0.89731464500575
H           44.60188641592989       -4.27155358717151       -1.58438000310233
H           46.24212773610051       -4.01392149621544       -3.69186716330370
H           46.25486083142558       -6.30346368704523       -4.61524725672545
H           48.28677836082910       -7.70180836203393       -1.10314130913774
H           48.26327060737171       -5.41155548348555       -0.18187412090196
H           49.89848559720210       -4.12759394976614       -1.86271450702453
H           51.77486642810189       -2.34883222592660       -1.13882219211822
H           51.74338316675762        2.43290142626439        1.06309756828047
H           49.84489450670526        4.19175013240153        1.77716164934834
H           46.15626998992607        4.04424325575207        3.56298409655079
H           46.13735910642322        6.33143086396638        4.49137384608987
H           48.22129279776827        7.75156286471247        1.01869522067101
H           48.22747741840730        5.46396998613843        0.09107277509705
H           44.54868430112760        4.29087016014682        1.44289980235194
H           42.67247320353771        2.50321349879118        0.74082860506534
