280
 energy: -466.634041856249 gnorm: 0.000485994571 xtb: 6.5.1 (b24c23e)
Fe          50.28613987776708        0.04420384260460       -0.04015239211505
C           46.90698833660331        0.13405186432071       -0.12146313326967
C           47.54988683442944        0.87873964755100        0.84685670439184
C           46.87316161089679        1.64868381004552        1.84568517091214
C           47.82733022170947        2.33617891743871        2.51834689190746
C           49.08469528272914        1.99919629587682        1.91611062626720
N           48.90509771718463        1.06498324416411        0.93278301209664
C           50.29649592619781        2.60704565708965        2.23749797557006
C           50.30323222702243        3.71205565820934        3.21882470576662
C           49.52059038225505        4.85367772461275        3.01928692843751
C           49.53989850404846        5.89242175859670        3.92985454796326
C           50.33910665682804        5.81825924016801        5.07791511817894
N           50.28419100756264        6.86029215175696        5.98960981350237
C           51.39506152853442        7.08039640785957        6.90567721442183
C           51.10954267479003        4.67118895651389        5.29212394985182
C           51.09484728838456        3.64155558819229        4.36758574655739
C           51.50035122625752        2.21793517539380        1.66227830429733
C           52.75463977393004        2.86823134653663        1.89953473058317
C           53.70335060312134        2.13186840057633        1.27043737506210
N           51.67994904378675        1.12715572385883        0.84577224916966
C           53.02520743845831        1.04207007234492        0.64295511349706
C           53.68680573692775       -0.01735153515741        0.00788689359415
C           53.00629266174084       -1.06042259061958       -0.63440292227732
C           53.66217916753079       -2.18251530682829       -1.22754942354546
C           52.70369364384908       -2.90044507373887       -1.86313657538406
C           51.46711695089647       -2.20333277575233       -1.66942360142785
N           51.66409473716883       -1.10493915170826       -0.86667181279655
C           50.26806573236735       -2.55315322363804       -2.27819094126499
C           50.25711447537679       -3.67863275667242       -3.23614276070599
C           51.08645595142333       -3.67049601102699       -4.35998563721449
C           51.08168401066127       -4.72052376225869       -5.26157921555062
C           50.25212112867271       -5.82561553106532       -5.04799771029206
N           50.17693671644591       -6.88470865103658       -5.93861328151070
C           51.30465461500624       -7.17626388830880       -6.81323436239905
C           49.41420475796715       -5.83651059329879       -3.92548987641951
C           49.41496614517379       -4.77745449763836       -3.03848792499888
C           49.07535394415912       -1.88048096359963       -2.01997884503812
C           47.83240432292333       -2.15953030315901       -2.67901291035425
C           46.88722942402044       -1.40269936655120       -2.07126768166944
C           47.55549194943199       -0.65368671566458       -1.05093054528099
N           48.90040134357695       -0.91902811957410       -1.06292216837520
H           45.82349316270968        0.16556922641272       -0.15013254549066
H           45.80559906977393        1.64942795349862        1.99946319513486
H           47.70182833353578        3.00871724365295        3.35141131874459
H           48.91341869613905        4.93549475611902        2.12441127451906
H           48.93606835731557        6.77709297304148        3.75700948174465
H           49.94065762279588        7.72182513020321        5.58290829263243
H           52.34987880270829        7.14717967927034        6.37177211811702
H           51.44663875664766        6.26916380774623        7.63295340357826
H           51.21318590425438        8.01435409195267        7.43732998064857
H           51.72076593519825        4.57542893637079        6.18112575915193
H           51.68929136212887        2.75297227585139        4.55051749103616
H           52.88396045415774        3.77548698841076        2.46697611291843
H           54.76770280846867        2.29892235793451        1.22840068885098
H           54.71921478847234       -2.38338787783254       -1.15760716303373
H           52.81548315577353       -3.82249751232784       -2.41007513543824
H           51.72680360881725       -2.81441531405746       -4.54295709798304
H           51.72383408782808       -4.67311878905796       -6.13250407973191
H           49.78227706738820       -7.72014657517639       -5.52388807963365
H           51.41421216995862       -6.38703516372665       -7.55810352972078
H           51.09817100655470       -8.11488576165677       -7.32742009575386
H           52.23877018134366       -7.27054307048201       -6.24780262543333
H           48.76382235427850       -6.68782242596087       -3.75405585122013
H           48.77549999320622       -4.80953701511827       -2.16315015084590
H           47.71062940329118       -2.84252654250449       -3.50410582236180
H           45.83071270905398       -1.34539630696789       -2.28060512291883
Fe          98.20907179851609        0.03682959611089       -0.06883741496135
C          101.58895300443012        0.09419233556189       -0.15211999285683
C          100.94915658887749       -1.01483417579241       -0.66823249331084
C          101.62895623655042       -2.15994898990308       -1.19264660388048
C          100.67747222967266       -2.97068591380170       -1.71506404034801
C           99.41889177199560       -2.30885810330095       -1.52729835398380
N           99.59478923549482       -1.14128686830902       -0.83591285045455
C           98.21044784545649       -2.75667843389370       -2.05640319500947
C           98.20806622911651       -3.96050277527837       -2.91381073317640
C           98.99779386733792       -4.02173725366323       -4.06622888663409
C           98.98185483458722       -5.14103914477121       -4.87580685273725
C           98.17889098247890       -6.24230482529490       -4.55237709085207
N           98.23677709463989       -7.36345790980218       -5.36473845095151
C           97.12324208592371       -8.30229280198884       -5.38307230579269
C           97.40130926605856       -6.19415812667402       -3.39124856250588
C           97.41264913101305       -5.06320434109148       -2.59372163279972
C           97.00617771539669       -2.10480270636224       -1.81898030974275
C           95.75761550064475       -2.47572810297848       -2.41553726652960
C           94.80595252705342       -1.69006087205727       -1.85417936840752
N           96.82079729447676       -1.06285099383049       -0.94242610069514
C           95.47647929541280       -0.83737992158645       -0.92432324457912
C           94.80778701634775        0.02096692518257       -0.04159509379521
C           95.48138105043039        0.86984260684044        0.84693272465590
C           94.81750185548275        1.69313329638447        1.80744297107622
C           95.77340386946290        2.45934283632786        2.38816114533171
C           97.01638951381163        2.11379762084602        1.76504534471770
N           96.82512065731555        1.09652527050049        0.86029209326568
C           98.21577805011704        2.77811150047964        1.99005515820226
C           98.22269411943661        3.95465267590381        2.88448757463570
C           97.39891968394599        5.05327099103953        2.62886750160519
C           97.40175627267757        6.15975098739908        3.46018132325186
C           98.22399220872261        6.18647291601470        4.59077258427486
N           98.29820880871510        7.28462612696554        5.43282723445428
C           97.17390779786867        8.20647991161980        5.52088835814240
C           99.05595245537154        5.08951056185982        4.84918227951933
C           99.05703636464389        3.99518085236393        4.00607402635353
C           99.41253105253548        2.37993325685319        1.39744401833526
C          100.65490422229553        3.08306589120727        1.53606598570485
C          101.60287564968606        2.32850182388814        0.92987814811295
C          100.93722829513733        1.17163474452493        0.41287105431315
N           99.59109882704766        1.23969119660666        0.66356396396120
H          102.67257090669928        0.11625051777376       -0.18465307663686
H          102.69651352823766       -2.30904875719223       -1.15478381712318
H          100.80557940471178       -3.93334245375530       -2.18296688374331
H           99.60785442619988       -3.16848339105058       -4.34177732667614
H           99.59113773906027       -5.17074589046727       -5.77303051234226
H           98.58693517932701       -7.15946568053945       -6.29288483563940
H           96.17095320890415       -7.79358818599070       -5.57168632438762
H           97.06471417249328       -8.83194933526431       -4.43136977000724
H           97.30747543662820       -9.02787982770085       -6.17527935940252
H           96.78699514841477       -7.03851269888142       -3.10353275810132
H           96.81222341043495       -5.04206405065336       -1.69069650487349
H           95.63412586221364       -3.23323679412572       -3.17235402781067
H           93.74413549477077       -1.68014150950414       -2.04123241936694
H           93.75741156212324        1.67503684814802        2.00351179915944
H           95.65570086201861        3.18998155426995        3.17182616207433
H           96.76494283903905        5.05006587327402        1.74883187837106
H           96.76414444061261        7.00222574340687        3.22186767755185
H           98.68623394374025        7.05891056953106        6.34068142943442
H           97.07167182493167        8.76200618437543        4.58779757397266
H           97.37907427936700        8.91192588355925        6.32604975160004
H           96.23640596369545        7.67910619500545        5.73105601280042
H           99.70052758968012        5.10324116157361        5.72180032381292
H           99.69201803465685        3.14504889947035        4.23022633199481
H          100.77437846024200        4.03458571092677        2.02842810034206
H          102.65980339713185        2.52101878535372        0.83411560743767
C           58.88304719201263       -0.06072043072319        0.03187142961744
C           57.65234483503477       -0.05658028274274        0.03101896051585
C           56.31192517847670       -0.04797288894461        0.02683189941911
C           55.08593300878744       -0.03597592046457        0.01868989074639
C           60.22339873792935       -0.05962160495200        0.03010962718201
C           61.44959712006528       -0.05403876567420        0.02343333328345
C           74.86784967095178       -0.04901379667986        0.15900669818167
C           73.63683711107950       -0.05468458127833        0.15167733564485
C           72.29723757125024       -0.05476642030214        0.13261456544604
C           71.07107403801099       -0.05087173733713        0.10512959803064
C           76.20752168056103       -0.03886723211026        0.15555585594037
C           77.43385837667880       -0.02723202061771        0.14026186742727
C           90.84195933136577        0.02886952174491       -0.03854154668674
C           89.61127064398676        0.03223897063481       -0.03688862294822
C           88.27093887230816        0.03707811190947       -0.03388037042475
C           87.04473616070294        0.03989571306163       -0.03026801444195
C           92.18243444491114        0.02568706486783       -0.04011419286682
C           93.40848549288610        0.02387960808318       -0.03994803008955
Fe          66.26157325634396       -0.00943746865027        0.00576260197137
C           62.84862460214629       -0.04247078861965        0.01871016412188
C           63.52591476201289       -1.10423154330686       -0.59543595760757
C           62.85237126314882       -2.18922798402965       -1.23515135204647
C           63.80900099073360       -2.93589830287471       -1.83886011910501
C           65.06475783593501       -2.31204130470618       -1.54881845639018
N           64.87470585598891       -1.19695364891254       -0.76963557747010
C           66.27944559783400       -2.73042138556001       -2.08190968709170
C           66.28722304522647       -3.89134103261568       -3.00095933102035
C           65.88928478765513       -5.15682888928504       -2.56145398506141
C           65.89923404089411       -6.23790243555660       -3.42211087563016
C           66.29430976423484       -6.08192696655519       -4.75683335662329
N           66.33062888105893       -7.20343610741407       -5.56984713696884
C           66.26662536362228       -7.05184239323938       -7.01707128764463
C           66.69922164598431       -4.81877109786328       -5.19905738033648
C           66.69640445014733       -3.74348680038695       -4.32740830596770
C           67.48916754642268       -2.11327497263140       -1.78571159706895
C           68.75587404691251       -2.57196211327599       -2.27203128803099
C           69.70473785263424       -1.82475621829698       -1.65729176262808
N           67.66559685769336       -1.08245576833011       -0.89431900235179
C           69.01436566641776       -0.91650601656369       -0.79759536755160
C           69.67318689508939       -0.03356219934158        0.06872683027782
C           68.99439240779616        0.87582372588235        0.89111069351311
C           69.65971298774997        1.75984254198060        1.79427732333243
C           68.70110906735857        2.54865565224860        2.33918729724171
C           67.45627288932457        2.14736645757542        1.75662377911517
N           67.64910481343513        1.09177524917537        0.89934571975063
C           66.24187415262595        2.77603562908609        2.01000900205214
C           66.23464350662508        3.97372844840293        2.87639593958862
C           65.47594505469328        4.00213807973157        4.04875468537326
C           65.47527220703357        5.11253950547667        4.87452410988386
C           66.23678404732567        6.23679659404990        4.54014377120931
N           66.23078025849637        7.39417048350063        5.30068891940207
C           65.88051185227152        7.33358949457718        6.71307109140433
C           66.98608761479207        6.21969941777970        3.35649131832622
C           66.99065377124606        5.10230332196117        2.54435787712199
C           65.03355589669401        2.31643646739088        1.49659714790683
C           63.77634327452087        2.96886007778634        1.70551058285309
C           62.82630312587747        2.16861254234137        1.16203442739664
C           63.50973915048178        1.04364899349897        0.60807052299739
N           64.85657405924542        1.15743998190313        0.78114748400906
H           61.78444282819688       -2.33697492874262       -1.23191228554271
H           63.68018858321083       -3.82013167331662       -2.44126671349397
H           65.59080066883283       -5.29478090738730       -1.52807277184464
H           65.59999805707133       -7.21788695376873       -3.06562177870749
H           65.74130012433494       -7.95452691669464       -5.23193395771189
H           65.40945005369140       -6.43991998345436       -7.32031999229177
H           67.18436077241030       -6.59202980219535       -7.38591487305090
H           66.17353530686505       -8.04520714478073       -7.45587166311568
H           67.01809502568672       -4.66849298277530       -6.22310328586851
H           66.99632718482187       -2.76492330580936       -4.68623582466523
H           68.89507793458615       -3.37733190486096       -2.97442547211746
H           70.77662535868943       -1.88055061551351       -1.75854264659060
H           70.72179895430062        1.76477399561963        1.97939455108640
H           68.81855161841023        3.32558849380804        3.07684149871890
H           64.89760844758032        3.12874224463226        4.32987729855227
H           64.88069586986366        5.09807593863457        5.77962822250086
H           67.03138369938260        7.98831836830609        5.12327004443868
H           66.47806553305703        6.58391775496688        7.24414129237426
H           66.06495176874125        8.31571988837720        7.14823051796236
H           64.82221624734201        7.09484849939573        6.82606710032289
H           67.56626913411411        7.09383296630907        3.08032433347934
H           67.56841796220520        5.10694810612701        1.62662087108061
H           63.64508603964743        3.91903121364793        2.19686339713635
H           61.75912917687935        2.31771846595686        1.12733550233383
Fe          82.23815846344559        0.03891382192482        0.01864000065214
C           78.83180861847981       -0.01272829203621        0.11427407233773
C           79.50116275655057       -1.07178681992235       -0.51446916765425
C           78.82299373784143       -2.17005536086634       -1.12670592802068
C           79.76891877752045       -2.90121187105148       -1.76520908486919
C           81.02361858721831       -2.25261979450565       -1.52791934993866
N           80.84366832636823       -1.14424380781223       -0.73583848201905
C           82.21781821803737       -2.62406177446340       -2.13546401367540
C           82.20935545143938       -3.76985443886453       -3.07300394636979
C           81.87709440277638       -5.05328603523955       -2.63084891034414
C           81.87748230299627       -6.12309352954403       -3.50541779065268
C           82.20210180779239       -5.93896120127124       -4.85547587264245
N           82.13120744391129       -7.03016715104605       -5.70630985668410
C           82.88387418124232       -7.02796724261200       -6.95332887088641
C           82.51982988818942       -4.65377012310488       -5.30522683970217
C           82.53125841465263       -3.59022464739632       -4.41930876064912
C           83.42268618201118       -1.97050064442146       -1.89765320947474
C           84.67235423953665       -2.36215432396748       -2.47694029255214
C           85.63264582824600       -1.61545533325446       -1.87840090659349
N           83.61907999114663       -0.97570036831679       -0.97116452094890
C           84.96682994430724       -0.77682239288688       -0.93333045791016
C           85.64587201547967        0.04701958129725       -0.02518077965746
C           84.98352292244819        0.88190189913534        0.88496919543261
C           85.66208025921330        1.70233417263811        1.83663700974190
C           84.71363853147339        2.46390950068621        2.43660920953640
C           83.46170560038274        2.11002193575391        1.83922979169445
N           83.63884359907568        1.10194160113388        0.92447566969783
C           82.25716452067972        2.75169608716018        2.11292423897633
C           82.27130628297890        3.92926138146739        3.00501726173169
C           81.49334027135797        3.96077429110430        4.16473173078903
C           81.50880333920455        5.05785991871387        5.00798284592097
C           82.30693092977062        6.16560567558369        4.70497494003802
N           82.31797480717373        7.31155161780007        5.48181647372629
C           81.92776533779825        7.24537209172474        6.88319731666378
C           83.07822346226911        6.14495469354491        3.53545790364965
C           83.06582219088619        5.04087819191283        2.70579756576513
C           81.04286166783258        2.32499282950816        1.58603999368524
C           79.79232997420486        2.98646725182737        1.80747326725428
C           78.83195605873409        2.19860077132261        1.26345227866837
C           79.50227709228022        1.07253209057625        0.69561673764923
N           80.85081900496567        1.17695707158809        0.85621783793214
H           77.75886496910682       -2.33717505577109       -1.08180832214194
H           79.63264734977403       -3.78860116654824       -2.36127462995601
H           81.64130457939216       -5.21403147681151       -1.58465824566445
H           81.62684258162230       -7.11623681126298       -3.14793127915715
H           82.19086848830030       -7.91552247990771       -5.21837808467194
H           82.46561072335078       -6.29193109168140       -7.64096875361950
H           83.94289621575459       -6.80246050158653       -6.78423547906925
H           82.79302352512165       -8.01650435931654       -7.40321553064362
H           82.75610432255647       -4.47653723570549       -6.34716176544772
H           82.77039889779245       -2.59645090126987       -4.78186969615983
H           84.79568658106322       -3.12632953375900       -3.22680716554219
H           86.69822660994045       -1.63208858636294       -2.04165961137345
H           86.72568001824351        1.68849882160163        2.01251479673948
H           84.84233982319802        3.19299932086767        3.21989825714354
H           80.88645308988700        3.09962308873041        4.42246231075529
H           80.89788762944110        5.04613984711678        5.90217924401556
H           83.13853248547255        7.88537252146789        5.33135430980053
H           82.48574909018640        6.47004155328498        7.42040369758313
H           82.13224132499595        8.21552596620634        7.33592688937581
H           80.85950206721829        7.04030595169128        6.96453664796546
H           83.68783739415315        7.00637514762994        3.28382625365319
H           83.65969437618288        5.04371837035516        1.79838834692896
H           79.67182912498826        3.93365267051034        2.30735354473374
H           77.76576754712492        2.35665951815105        1.23761100689577
