120
 energy: -204.001244934819 gnorm: 0.000328023344 xtb: 6.5.1 (b24c23e)
Fe          11.50211485011207       -0.03175384710739       -0.05552437675859
C            8.11287023800364       -0.05495707040206       -0.06999089095928
C            8.76663833344159       -1.25585232095375       -0.25370777454692
C            8.09052129412479       -2.50216099374126       -0.45292769082091
C            9.04520402891222       -3.46164600036549       -0.47613517805931
C           10.30495097073408       -2.79799572226267       -0.30257810496333
N           10.12144894303720       -1.44724155308889       -0.17947511644661
C           11.52118956793572       -3.46133303193448       -0.18298432029182
C           12.72832634502840       -2.79907887380113       -0.01577042663332
C           13.99580778797732       -3.46271885728871        0.06075885845002
C           14.94270568484746       -2.49471968623994        0.09239132896381
N           12.90293141888869       -1.43492229522762       -0.00793067285897
C           14.25195677515290       -1.24471605377517        0.03332620531965
C           14.91045916851819       -0.01055753616707       -0.03386552822771
C           14.23254866012086        1.21400510598861       -0.08076603444021
C           14.90102583882625        2.47325973353658       -0.17896331396164
C           13.94220801737190        3.42781030346895       -0.10674794146164
C           12.69093255395964        2.74642738151914        0.04265801316047
C           11.47348403626396        3.39104867655709        0.21263859750057
C           11.46142624033666        4.87018112741441        0.30574399153852
C           10.77506170316125        5.63213363274856       -0.64093531888242
C           10.76886333894421        7.01613271905353       -0.55556965868734
C           11.44228029693415        7.65501889098165        0.47674845617425
C           12.12559050910150        6.90383574633277        1.42337290997974
C           12.13875025872935        5.51975025568410        1.33864354510470
C           10.26351363133265        2.70866967878133        0.28308860016181
C            8.99408539660233        3.34633178505291        0.48243203108082
C            8.05118791045828        2.37945569846037        0.38751131210155
C            8.74630895228744        1.15114191354048        0.14766269638060
N           10.10071547249705        1.35867611745289        0.12470130566093
N           12.88440311586497        1.38552616194210        0.02578969647913
C           11.53004092702804       -4.94397890834597       -0.24660578979512
C           11.19209435673124       -5.60239483766907       -1.42900273978227
C           11.20571829813106       -6.98806041065193       -1.48632340334395
C           11.55030562200128       -7.72988414157180       -0.36465431347200
C           11.88515426362068       -7.08074817489700        0.81587748780197
C           11.87881916093240       -5.69514947838398        0.87585618858614
H            7.02874837846165       -0.06137903928268       -0.08614878973493
H            7.02159480685449       -2.60982138781891       -0.54723718431518
H            8.91987072549306       -4.52640540956876       -0.58770854694519
H           14.13329307216588       -4.53163800722169        0.06868723160965
H           16.01438131558709       -2.60180929494466        0.14034669786760
H           15.96645196360007        2.59522599314637       -0.28981187244213
H           14.06084170880809        4.49773911461104       -0.15899970159801
H           10.26016066391818        5.13507548759382       -1.45552045994151
H           10.23650911406084        7.59839450197460       -1.29948402679856
H           11.43490454234932        8.73705758581933        0.54310161888151
H           12.65132895442624        7.39815241186989        2.23274238467277
H           12.66288963543984        4.93383401369185        2.08543084963947
H            8.85521385473446        4.39812107670077        0.67295797393824
H            6.97981497329841        2.46967980225476        0.47175453675492
H           10.93337341082169       -5.02330498127379       -2.30842902021572
H           10.94678969821740       -7.49062211391670       -2.41165519008761
H           11.55826516812475       -8.81298376600668       -0.41063249328875
H           12.15285832380188       -7.65599445611244        1.69523531550932
H           12.13167272074559       -5.18853663799205        1.80056470655867
Fe          30.05058539122948        0.03088614242376       -0.05443825725740
C           33.44036212679591        0.05611554091650       -0.06313183560570
C           32.78656750914696        1.26445746363120       -0.18820032987917
C           33.46305235037041        2.51905877487195       -0.32390341570818
C           32.50796539140180        3.47822339228218       -0.30628683101060
C           31.24769458138194        2.80655230643166       -0.17180513727308
N           31.43132928403073        1.45159541861975       -0.11094937654427
C           30.02998685811336        3.46333928441357       -0.03284430552294
C           28.82216663971796        2.79390558180709        0.09615323937027
C           27.55378268953866        3.45343369657345        0.19081156765714
C           26.60749141695564        2.48444651438634        0.17950492836801
N           28.64859367766768        1.43041198373876        0.04827163851422
C           27.29952877346509        1.23805519628369        0.07581392223832
C           26.64166645927044        0.00699243629627       -0.03828475165958
C           27.31988282919048       -1.21469314544501       -0.13092649116262
C           26.65145272150961       -2.46935228416716       -0.27678081452410
C           27.61071909755838       -3.42560009992737       -0.24493109561671
C           28.86219552295504       -2.75011185677379       -0.07217076314048
C           30.08049686000915       -3.40085544455986        0.06460983003899
C           30.09312609811314       -4.88276117620852        0.09326750830445
C           30.77094582520759       -5.60261378742014       -0.89168532268343
C           30.77732589955325       -6.98903327336220       -0.86684137049807
C           30.11277599297809       -7.67231977430497        0.14252283790705
C           29.43820224112521       -6.96314936205491        1.12705331370186
C           29.42473729086726       -5.57667750484456        1.10282948411441
C           31.29070420255240       -2.72202144369069        0.15947505887844
C           32.56077877135673       -3.36813625973276        0.32454671103414
C           33.50323998570730       -2.39760274800558        0.27309839578004
C           32.80722574656416       -1.15946597980844        0.09399358374358
N           31.45283947686548       -1.36606865126786        0.06342529108169
N           28.66829106265327       -1.38971194604391       -0.03357667092261
C           30.02048039007714        4.94732572576702       -0.03249188935338
C           30.36915047791531        5.65617945040458       -1.18217737179804
C           30.35545979700978        7.04301405841886       -1.17982376885815
C           30.00016246362719        7.73574105670493       -0.03045142834200
C           29.65443230322602        7.03627576115806        1.11773950221402
C           29.66070202689097        5.64937649271309        1.11794127417342
H           34.52450399481944        0.06361578630601       -0.07769946950472
H           34.53239351994287        2.63143591468553       -0.40736044063975
H           32.63326380367729        4.54714009520707       -0.36608943589658
H           27.41544441597181        4.52115802387835        0.23947430172519
H           25.53549405659884        2.58903639976600        0.22555336811276
H           25.58578764213667       -2.58719293256096       -0.38980733858690
H           27.49235914553386       -4.49268712714906       -0.33909224959168
H           31.27903795301178       -5.07045336217722       -1.68816550320890
H           31.30281472157795       -7.53830463244260       -1.64014446736505
H           30.12023565881114       -8.75622511344769        0.16149791506519
H           28.91951707579738       -7.49230476560936        1.91875132612352
H           28.90727305861710       -5.02384050636272        1.87891315598140
H           32.70026229816251       -4.42776328352861        0.46446593376734
H           34.57485312979168       -2.49131918489178        0.35016147417963
H           30.63649709471758        5.11553754665583       -2.08323800387270
H           30.62319632294113        7.58503253654343       -2.08005039995273
H           29.99244527447571        8.81981891574144       -0.02965438462265
H           29.37794367111661        7.57306831562408        2.01843949783048
H           29.39909900810505        5.10335504563235        2.01745167407109
C           16.31044784227685       -0.00144067381385       -0.05159247448867
C           17.53684679979819        0.00282151008840       -0.06028137160147
C           18.87600513422929        0.00352785056651       -0.06710713681848
C           20.10884988165412        0.00301222558316       -0.07094887736516
C           21.44323531829042        0.00026016467955       -0.07207636971427
C           22.67604063095293       -0.00128775633910       -0.06885436916597
C           24.01520613594859       -0.00203731924915       -0.06371467145745
C           25.24165017935358       -0.00134624169710       -0.05632220286606
