262
 energy: -523.752990277063 gnorm: 0.000571356719 xtb: 6.5.1 (b24c23e)
Ni          40.79705310637765        0.00226338445983       -0.06501274636966
C           37.40765152578910       -0.02046009388924       -0.19194980399948
C           38.06527470894594       -1.23248082736447       -0.22131409328896
C           37.39593010569828       -2.49674989568376       -0.26460823480313
C           38.35799348443227       -3.44140739483676       -0.38037761288664
C           39.61414673685633       -2.75070668783613       -0.42500934497887
N           39.42635757887290       -1.39917551778360       -0.28354431262813
C           40.83725473330932       -3.37340594867258       -0.64067691544505
C           40.85818510801907       -4.83362981673814       -0.88460275167436
C           41.55157741765987       -5.68331861672544       -0.01741122235530
C           41.57292942051490       -7.04826889348192       -0.23884203425268
C           40.89973251035251       -7.56767140908509       -1.34095386183284
N           40.92159542349937       -9.00006817409087       -1.58023663293002
O           40.32363255208091       -9.41412141605431       -2.54006896879575
O           41.53607993346066       -9.68565690000790       -0.80397009788381
C           40.20647038884420       -6.73864476434996       -2.21823511569687
C           40.18658484306653       -5.37570105384633       -1.98454804421972
C           42.04234578461976       -2.68205574478963       -0.64758768535784
C           43.30606638286871       -3.28494911036704       -0.94640542463664
C           44.24662379634450       -2.32492437196310       -0.77724896983837
N           42.20441373706887       -1.35101369307900       -0.33954576715320
C           43.55543033201342       -1.13929552906121       -0.38192740774974
C           44.20871716539335        0.03773375138823       -0.00588716844362
C           43.51919058446691        1.19576813062768        0.36434430493276
C           44.17100269777990        2.38576980891895        0.80984336053267
C           43.20341070242795        3.31844710441855        0.98014143974253
C           41.96388986823165        2.69730625506777        0.62273482685739
N           42.16569185696673        1.37834496493632        0.28633612145157
C           40.74719707164584        3.36613736889898        0.57489588848951
C           40.72342650469097        4.81923755025384        0.85780301221238
C           39.97488311999528        5.31683800140558        1.92876650395153
C           39.94785499694681        6.67322446802594        2.19722476604048
C           40.67147923280217        7.54063449078193        1.38387421857765
N           40.64314295527834        8.96652716559462        1.65863290723100
O           39.97772475185246        9.34177111856263        2.58960040622005
O           41.28661778811319        9.68595299405998        0.93849953956002
C           41.42104168639364        7.06585103484481        0.31134401566687
C           41.44575102169974        5.70710329065828        0.05484686711031
C           39.55104043423522        2.73047716693464        0.26494418722326
C           38.29212165703631        3.40613579891263        0.14000376617968
C           37.35673048580109        2.45348898655204       -0.08083269545696
C           38.04523448126171        1.19888167749354       -0.09898050348866
N           39.39467402125662        1.38097246520533        0.07625438588799
H           36.32497938282984       -0.02708352490245       -0.23682289129496
H           36.32670235914789       -2.62424981890207       -0.20968865975430
H           38.24074774379756       -4.51171920950177       -0.42916024184277
H           42.06276006239789       -5.26711920391565        0.84281324614554
H           42.10205755874973       -7.71557505168721        0.43078475276932
H           39.69461394829816       -7.16755935499199       -3.07129727232176
H           39.66076377268655       -4.71809128672220       -2.66687106164430
H           43.44531693505252       -4.30863325814586       -1.25307526806187
H           45.31475387853017       -2.39859323613419       -0.90189492998769
H           45.23303715254594        2.47936110805908        0.96876078391642
H           43.30969206181620        4.33533114574680        1.32074593418374
H           39.42466531218832        4.62970137206265        2.56092177818509
H           39.37563186191657        7.06786869671016        3.02818611282274
H           41.97196324083716        7.76246086610125       -0.30905685418208
H           42.01548219267050        5.32588382589261       -0.78454667388613
H           38.15571219447570        4.47311897213190        0.20814097690210
H           36.29369308814847        2.56918780696742       -0.21895991519495
Ni          96.49484436464977        0.04336061518480       -0.02991095411644
C           99.88347724323987        0.10751342873689       -0.15689941897341
C           99.22930112218052        1.24301305482408        0.27321061105661
C           99.90185545122088        2.43172330746667        0.70091568968141
C           98.94222283945327        3.35460672126598        0.94340202893008
C           97.68421425020526        2.73212514347551        0.64864780909670
N           97.86854557860818        1.42377906375698        0.27996228829996
C           96.46223543516780        3.39257496608724        0.68215656944653
C           96.44584802116269        4.84023752825387        0.99195914477298
C           95.75851662641982        5.31363635257052        2.11369305416548
C           95.74275818921683        6.66439377083302        2.40992795804103
C           96.41557764070141        7.55059424596036        1.57351600771591
N           96.40025305977341        8.97052130359730        1.87852754699143
O           96.99851266086873        9.70660550976221        1.13656214479758
O           95.79028312917008        9.32449116167693        2.85469723240823
C           97.10275533010012        7.10016071882337        0.44993497487830
C           97.11704527563377        5.74676726608221        0.16580864951404
C           95.25470521795839        2.75306845032643        0.43091264931716
C           93.99036081017681        3.42333851685913        0.38753678403828
C           93.04752873257203        2.46754005302806        0.20707201444731
N           95.09030614576432        1.40151364376700        0.23253170049680
C           93.73802871852685        1.21957139184150        0.13322394354705
C           93.08437335141603       -0.01400737362512        0.06121955121120
C           93.77387830149142       -1.22605833804808       -0.03578908702240
C           93.12318669713183       -2.49706897235936       -0.05905008204569
C           94.08786736708504       -3.42373233765914       -0.27347126644734
C           95.32447848432736       -2.71216867994666       -0.39321580432537
N           95.12468337249703       -1.36419786385642       -0.20213646805525
C           96.53637004902714       -3.31189224998974       -0.71226400780580
C           96.55539063967257       -4.76274472854975       -1.00656574735031
C           97.31712128809316       -5.63243468459299       -0.22022558042491
C           97.34080047883030       -6.98807020019160       -0.49277039740783
C           96.60026923287803       -7.47788467906269       -1.56480814572519
N           96.62591135841667       -8.89995620087316       -1.85894960325891
O           97.30389526528108       -9.60286926917144       -1.15431688855946
O           95.96775584645485       -9.28873177617168       -2.78951280823355
C           95.83652975658899       -6.62883184191910       -2.36067402189426
C           95.81535024477458       -5.27561296811602       -2.07620867519523
C           97.73208321752873       -2.60638019638042       -0.77161174884184
C           98.98728233290318       -3.18423626560318       -1.15578283741524
C           99.92553661584930       -2.22158903422181       -0.99978705034633
C           99.24208728898360       -1.05451603157335       -0.53164454738576
N           97.89289570075154       -1.28748287705336       -0.43100570454607
H          100.96604969627501        0.12848783991251       -0.19964984651739
H          100.97143555271174        2.52748348630296        0.79759092369351
H           99.06224177278790        4.36687361033706        1.29355987326810
H           95.24800071932323        4.61185788904183        2.76284271545546
H           95.21851424861387        7.04027446082279        3.28030353846590
H           97.61449684264522        7.81111456096528       -0.18751772750043
H           97.63833021534276        5.38449762062870       -0.71255935683404
H           93.85202739559267        4.48833358762629        0.47706220619754
H           91.97834584881835        2.58152129524134        0.13145418122998
H           92.06369916441987       -2.64503282548448        0.07337307237750
H           93.98168127090406       -4.49405720547970       -0.34069417429825
H           97.88055257433076       -5.23985447248502        0.61818804559715
H           97.92353269501605       -7.67068928797074        0.11397223083507
H           95.27221926658594       -7.03480079451783       -3.19158809057053
H           95.23462919309345       -4.60216794401393       -2.69568096319459
H           99.11972363650180       -4.19581406064717       -1.50343514435179
H          100.98731042261925       -2.27737111171664       -1.17878297159179
C           45.61342346176534        0.05352795025066        0.00671230468460
C           46.83747474545145        0.05973228107273        0.01445916956362
C           48.18059725173283        0.06336281558315        0.02308265394892
C           49.41093962523486        0.06553961430281        0.02269242063509
C           50.74918558674525        0.06277847700175        0.02386270530726
C           51.97958435918321        0.05668674674887        0.02284332700645
C           53.32246910568387        0.04838923458626        0.01769090220287
C           54.54671365280346        0.04211144358194        0.00700306237246
C           64.18086007852692        0.03984323053513        0.05265440428931
C           65.40524695753489        0.04079938321107        0.06405470554613
C           66.74804355660659        0.04097268364407        0.07122244974288
C           67.97864691548355        0.03939186646989        0.07276454703339
C           69.31668777071116        0.03695535017979        0.06933178352316
C           70.54726760287009        0.03334845547754        0.06260790801101
C           71.89001660690836        0.02975249100906        0.05086104275527
C           73.11437713939185        0.02394315214202        0.03745045642236
C           82.74736565317062       -0.00340117985362        0.09154126996771
C           83.97159280768582       -0.01293155246301        0.11010775322143
C           85.31424714946502       -0.02278709136146        0.12368854060157
C           86.54470355438406       -0.03416140121816        0.12873138704677
C           87.88278617346030       -0.04026168289415        0.12846844796331
C           89.11319539657804       -0.04470059170109        0.12094120673568
C           90.45611027295749       -0.04152024471304        0.10605694588608
C           91.68014361493864       -0.03413469781622        0.08805102298081
Ni          59.36399945244260        0.03834516650489       -0.01285833439737
C           55.95062630493459        0.04000276647761       -0.00165017290713
C           56.62551131828013       -1.16044064910342        0.24026289539845
C           55.96105268218282       -2.39008332469512        0.53206602187201
C           56.91476995201814       -3.35272268417842        0.54918573576929
C           58.15853915480813       -2.70626737516941        0.26015529560530
N           57.97489411700522       -1.35022774066452        0.11989736317914
C           59.36272646247681       -3.37694235972276        0.08299396045945
C           59.35725872564488       -4.85680975373493        0.11281510087609
C           60.11255622198920       -5.54852465771452        1.06459164977744
C           60.10554052746890       -6.93112470015642        1.09744464086330
C           59.34073584497656       -7.62844118648532        0.16672269228890
N           59.33152329884648       -9.08079862719389        0.19542837296853
O           58.65172413423218       -9.64992351470796       -0.61939699282954
O           60.00424706071510       -9.62589218896010        1.03226696880855
C           58.58387799129623       -6.95896363111266       -0.79058865387816
C           58.59327709538129       -5.57625096481595       -0.81127071072012
C           60.56961439298693       -2.71824307994430       -0.11604557205224
C           61.81766874468837       -3.37975566811095       -0.34700626762960
C           62.77355777595680       -2.41915850448129       -0.35250081061546
N           60.75383656119136       -1.35658350305620       -0.04033083704174
C           62.10561207854634       -1.17506461147920       -0.14067863580485
C           62.77711581511457        0.03936352714503        0.03347459420363
C           62.10001529960766        1.25459663714701        0.17671078024086
C           62.76169046061136        2.50321223180402        0.38189376633028
C           61.80789873472314        3.46381207984100        0.31803757405643
C           60.56700004391315        2.79678782554059        0.06582320024023
N           60.75205598565866        1.43394221409658        0.02920201837013
C           59.36503665762734        3.45113143254718       -0.17429999256247
C           59.36607074448936        4.92925543205273       -0.25182644997928
C           60.13681012682218        5.58430086130008       -1.21711075752888
C           60.13570214516430        6.96484529066902       -1.29894837926524
C           59.36178210372447        7.69726543226024       -0.40336604980481
N           59.35738961155931        9.14764531141105       -0.48448721195372
O           60.03991063615316        9.66033138898695       -1.33379536360985
O           58.67132782174858        9.74768813563855        0.30243228533897
C           58.59145953098915        7.06474331361762        0.56821603469668
C           58.59498930985068        5.68357152965214        0.63784187432575
C           58.16073720554421        2.77800814031427       -0.33931361657913
C           56.91599960455749        3.41922756257242       -0.63593295729957
C           55.95976033076948        2.46062037647804       -0.57903387191005
C           56.62452816978119        1.23707104104044       -0.26361645844939
N           57.97525274478150        1.42621486362178       -0.16216502730208
H           54.90019211892609       -2.48920445448570        0.69535591814829
H           56.79627494439008       -4.40586387217164        0.74475995910557
H           60.69380009031874       -4.99371143410358        1.79179627815188
H           60.68215334246094       -7.47613094996500        1.83512050446986
H           58.00005982778751       -7.52530955406645       -1.50618520341592
H           58.01715921991327       -5.04293639841653       -1.55838643522477
H           61.93801610182739       -4.44129317713059       -0.48855200873908
H           63.83763273828051       -2.52807656248945       -0.48591743139797
H           63.82089951283513        2.61505103037400        0.54767495179515
H           61.92439993164648        4.52875428142321        0.43530224732670
H           60.72556815612093        5.00186414253319       -1.91614011531571
H           60.72369565353619        7.48138853994085       -2.04802837966994
H           58.00163563431842        7.65811980219929        1.25646767905297
H           58.00859485715197        5.17929166813743        1.39701459961053
H           56.79784968161096        4.46653653081924       -0.86072699657048
H           54.89748273931034        2.55837555889834       -0.73363912046668
Ni          77.93123431729462        0.00799186392167        0.00165075269038
C           74.51810579803687        0.01795114053685        0.02057633652250
C           75.19072220577537       -1.18593648993829        0.25289296690145
C           74.52395073478232       -2.41606777218261        0.53780291031336
C           75.47527810150413       -3.38118405965102        0.54597714429760
C           76.72009821822525       -2.73583508526223        0.25908109691534
N           76.53917333772085       -1.37833982072308        0.12763589102114
C           77.92293495037970       -3.40744071882576        0.07785868454842
C           77.91878011995438       -4.88730019856851        0.10617331656309
C           78.67721189046132       -5.57675500252166        1.05725898916371
C           78.67544350203828       -6.95927712965881        1.08970741191742
C           77.91255615223618       -7.65896404621935        0.15917887313562
N           77.90969936301076       -9.11135278860471        0.18681572198087
O           77.23321837386437       -9.68292199337034       -0.62905459251242
O           78.58477052925805       -9.65406888878944        1.02332407503704
C           77.15214844084507       -6.99182348456133       -0.79694782879989
C           77.15624028499256       -5.60898767204210       -0.81717852636257
C           79.13097377689914       -2.74951323085002       -0.11814153529166
C           80.37785594623527       -3.41182617288780       -0.35277612115349
C           81.33597545982035       -2.45336839068266       -0.34779132134567
N           79.31788857986129       -1.38904472567257       -0.03159864270161
C           80.67037389742012       -1.20982254920135       -0.12642760060909
C           81.34394136983026        0.00127453502228        0.06271404368158
C           80.66871145140456        1.21705757495814        0.20906595624019
C           81.33183917706650        2.46375859127938        0.42035145351784
C           80.38102108245113        3.42684717209548        0.34864921375392
C           79.14030988983653        2.76292819361561        0.08765482177031
N           79.32210804931621        1.39988235000447        0.05232681859437
C           77.94101614809398        3.42044377692490       -0.15880658566573
C           77.95051868739479        4.89817567387782       -0.24295049840883
C           78.72964770029887        5.54254801940459       -1.20881847402449
C           78.74136306210323        6.92263593572902       -1.29618364445413
C           77.97177855610035        7.66552659070770       -0.40548839563409
N           77.98239739794629        9.11561973378751       -0.49111153633609
O           78.67328014773213        9.61867088146384       -1.33942130015924
O           77.29941162979536        9.72506224177585        0.29124463009210
C           77.19260629466268        7.04375210065178        0.56595993173856
C           77.18334433239816        5.66282511650679        0.64113385533734
C           76.73481529953771        2.75085360461368       -0.32259433021461
C           75.49090644845936        3.39520483326738       -0.61605052995776
C           74.53199013296495        2.43959202166345       -0.55379423343703
C           75.19434274910364        1.21414480428161       -0.24036801286219
N           76.54576909678966        1.39950883099016       -0.14354261472433
H           73.46318957950469       -2.51389753493255        0.70249905242952
H           75.35457018833307       -4.43546205153657        0.73397597880707
H           79.25732671853680       -5.01995008601500        1.78385244952636
H           79.25496487811351       -7.50234716108743        1.82652646022405
H           76.56998580368710       -7.56013083373388       -1.51234284958310
H           76.57766506179139       -5.07761762965944       -1.56377396976954
H           80.49612070355985       -4.47227898007192       -0.50380862034858
H           82.40003751706512       -2.56355974449210       -0.48015455948188
H           82.39006618270638        2.57281081617850        0.59409803246578
H           80.49936873147546        4.49148582815872        0.46680774184666
H           79.31560953610450        4.95196459500752       -1.90335512167572
H           79.33651904446019        7.43083646974745       -2.04531279981438
H           76.60650323990328        7.64522051169834        1.25035955648058
H           76.59066896951150        5.16705759422964        1.40102739283726
H           75.37501188469199        4.44261077571265       -0.84162024720336
H           73.46940801648765        2.54034008212848       -0.70443857255159
