177
 energy: -316.984350037705 gnorm: 0.000487445013 xtb: 6.5.1 (b24c23e)
Fe          34.93639048539298       -0.10489055081192       -0.12141624555509
C           31.54919982473583        0.07237568893837       -0.06649896080122
C           32.25187753404786        0.87227202671699        0.81133865894903
C           31.63875668214982        1.78249712572341        1.73138433104848
C           32.63444074752746        2.28688838442063        2.49946533829516
C           33.85012344115923        1.68061152893943        2.04671060690479
N           33.61135507433610        0.84531292541394        0.99587846172309
C           35.08662028014274        1.85807576507483        2.67421289352539
C           35.15155092015322        2.69023484159485        3.81196182924161
C           35.20824630369151        3.42122470978967        4.77903057684939
C           35.26997337771062        4.28106645453602        5.89941733159389
C           36.46272994731589        4.47009702331898        6.60714307392124
C           36.46835799608716        5.32711574831856        7.69332256390654
N           35.38897691834575        5.98792617180229        8.10405864381231
C           34.25120736570320        5.81372515402251        7.43647072285122
C           34.13904559268640        4.97956071529025        6.33851725954253
C           36.25975786717378        1.25443431039638        2.21902342493812
C           37.52758355230892        1.39269036327835        2.86574392973243
C           38.43943322244945        0.78519145360219        2.06672911591721
N           36.38619061875541        0.54081869621633        1.05830785539028
C           37.72256739865563        0.28359976570682        0.93591937575021
C           38.34078913755114       -0.25613174950129       -0.19589121447124
C           37.62735713326344       -0.74468596788943       -1.29457208833546
C           38.24605323050486       -1.31703445028145       -2.44954156446975
C           37.25045925667239       -1.85538777108549       -3.19645829810848
C           36.02999925631919       -1.60139501411425       -2.49614058773139
N           36.26971065584635       -0.88906364513643       -1.35282132107929
C           34.78849240366737       -2.09953063942349       -2.89464149435736
C           34.73157043403240       -2.94812362734546       -4.02061454152874
C           34.68655581061552       -3.69097135499671       -4.97925282017530
C           34.63338536107367       -4.56567461370160       -6.08853855835002
C           35.78091047760788       -4.86785668601872       -6.83109078820516
C           35.67529653565267       -5.73462905325643       -7.90427349087166
N           34.52898434299607       -6.30233542591889       -8.27056601462047
C           33.43359740823389       -6.02001020117078       -7.56991624847038
C           33.43138764958056       -5.16589919299749       -6.48154823906907
C           33.59931786459698       -1.79222220867655       -2.22747585073157
C           32.31277816273253       -2.27137787152111       -2.63454747326271
C           31.40024820072041       -1.65129021305113       -1.84804550174035
C           32.13479267656843       -0.80186122762167       -0.95936961553262
N           33.48303628996700       -0.92357309191945       -1.18279772802604
H           30.46665944529355        0.13161762934164       -0.05082369376815
H           30.58115507442844        1.98892462405414        1.77428308426090
H           32.56899033192203        2.99607451593621        3.30909622979285
H           37.36522620769134        3.95188514881992        6.30633311429098
H           37.37942003895635        5.49244489505108        8.26119259559232
H           33.39049814571921        6.36897811841216        7.79800607449756
H           33.19297705683972        4.86726404930714        5.82284796951440
H           37.68502308037569        1.89888773129497        3.80459862768970
H           39.50382820440496        0.69004443991506        2.21010560133735
H           39.30678181475530       -1.31453226132956       -2.64275194432898
H           37.32127320615660       -2.38393101362425       -4.13352526874612
H           36.73499952575881       -4.42829531437372       -6.56642485410732
H           36.54931310564678       -5.98764422992048       -8.49747219764656
H           32.51573686854158       -6.50052112361113       -7.89619297351076
H           32.51619591226193       -4.96375097946000       -5.93832024197627
H           32.14764371026853       -2.98043050723150       -3.42997965476921
H           30.32578064488937       -1.74298878730279       -1.85781102803722
Fe          56.60857698349988       -0.27014102372424       -0.17284011190961
C           60.00248406498246       -0.16001052237299       -0.15389462056559
C           59.39813977178981       -1.37373029169097       -0.40930474141013
C           60.11718587047264       -2.58295431288380       -0.67673235599688
C           59.19481621203508       -3.57181250325664       -0.75921301327347
C           57.91786839904575       -2.96137822960096       -0.54224277670331
N           58.04860411155796       -1.61697605023193       -0.35830040626607
C           56.72133181498592       -3.67886078264521       -0.45501467889243
C           56.76813170173966       -5.08343422023916       -0.58349302137164
C           56.80969198486876       -6.29022965457661       -0.70490638234982
C           56.85530426058603       -7.69549985731733       -0.85187065756485
C           55.69355000862110       -8.47163369465566       -0.76533876911415
C           55.79098806069997       -9.84298113448380       -0.92012666964792
N           56.94259981268702      -10.46888971676668       -1.14928525344784
C           58.05148442078639       -9.73825170566575       -1.23279685967922
C           58.06251734453422       -8.36184876641099       -1.09280064607834
C           55.48311739332020       -3.06721886468668       -0.25598460166327
C           54.25250645508174       -3.78772745353477       -0.15144702142903
C           53.26482204476788       -2.86101755874585       -0.08808340161212
N           55.25644245778089       -1.71769345488119       -0.22358324790205
C           53.89902143748130       -1.58147377604838       -0.15310151197462
C           53.19762781016860       -0.37541921591973       -0.25337847431816
C           53.82833415510594        0.87189794667340       -0.30682532028805
C           53.11946488227601        2.11137220847789       -0.38066862898567
C           54.04114238916171        3.09487735574539       -0.23372472386926
C           55.30737807154927        2.44905323424434       -0.07914329304834
N           55.16859509301730        1.08969753224822       -0.15599650110819
C           56.49578586679713        3.13096731880094        0.18496624788716
C           56.44729796487498        4.53030635998676        0.36064064385118
C           56.40462483534038        5.73134937079182        0.52945010560416
C           56.36013947614892        7.12970992152674        0.73192531021448
C           55.15752774073376        7.83983899811435        0.63803411283276
C           55.16897084681450        9.20723884261249        0.84845601778669
N           56.27409880241086        9.88920803530906        1.13839738362810
C           57.42136523534757        9.22141322310063        1.22949294800832
C           57.51804025932852        7.85479074430481        1.03703421303572
C           57.73484521360817        2.49030454655224        0.27560084780484
C           58.96749655076438        3.17888031097648        0.51415215494762
C           59.95453350423699        2.25720400480733        0.40604946905280
C           59.31846978174075        1.00900174573547        0.10934195635993
N           57.95588415352511        1.16244161804377        0.05953582808806
H           61.08617658187138       -0.12406313455797       -0.15260699341598
H           61.18901193814717       -2.64783324911869       -0.77637758909729
H           59.34722576659708       -4.62355515723906       -0.94167914873350
H           54.73500841742510       -8.00205666164097       -0.58034137486354
H           54.90600085486412      -10.46967942422456       -0.85811872901596
H           58.97318280371534      -10.28130497069913       -1.42090496146283
H           58.98877394572408       -7.80522389865136       -1.16866104039774
H           54.17012565991950       -4.86266240154719       -0.13932110789960
H           52.20040206309207       -3.01620633588831       -0.01613725222373
H           52.05325450971087        2.20223792732260       -0.51212778838857
H           53.89195091820942        4.16261519207299       -0.22385884976081
H           54.23438060845085        7.32339843700927        0.40435317902394
H           54.25070928987594        9.78359600304860        0.78200678025546
H           58.30332670709166        9.80899175511283        1.46761672479865
H           58.47289111808865        7.35006253305863        1.12102716060060
H           59.04866846647745        4.23354498107475        0.72338332711122
H           61.01952873948899        2.39150568110315        0.50950432805545
C           39.74641428511688       -0.31575413829103       -0.22941579446411
C           40.96188251651521       -0.36967894627551       -0.26082415494592
C           50.57566180252871       -0.44865263680911       -0.32309278384898
C           51.79250247900082       -0.41758021079419       -0.29212119653725
Fe          45.76685332154861       -0.54509303672373       -0.38653373739632
C           42.36612488374979       -0.43528868864480       -0.30327665078887
C           43.01949971996208       -0.02965418403629       -1.47279344280139
C           42.34713657577976        0.42016991470895       -2.65103113310831
C           43.30461303869710        0.89395879519580       -3.48769704766148
C           44.55336172686500        0.73919373693713       -2.80916383136195
N           44.36991045306863        0.12800586072839       -1.59923480989458
C           45.75865863452347        1.28791450101880       -3.25485020300243
C           45.75687047376393        2.03741842706122       -4.44987609509614
C           45.74762792090946        2.68285846812377       -5.47769626111331
C           45.74417638848883        3.44069492124071       -6.67103431737207
C           46.90286040869678        4.08218357319597       -7.12435641225032
C           46.84803661673001        4.81331248745306       -8.29762246204668
N           45.74077166808602        4.93897048878140       -9.02459772902641
C           44.63533297194250        4.33186457713569       -8.60076070488960
C           44.58375978629482        3.57808752333451       -7.44161429634840
C           46.96009634471676        1.15201410065726       -2.55342131625354
C           48.18867607800409        1.77263110730267       -2.93821009606788
C           49.14331880723451        1.29708203288110       -2.09918256260974
N           47.15151502471311        0.33504220686989       -1.47434698755478
C           48.49249265558685        0.38039580009419       -1.21625835526599
C           49.17126498539548       -0.48936282881779       -0.35485905582911
C           48.50971326672428       -1.42016696149551        0.45601225684802
C           49.17490174528896       -2.36880002901070        1.29268404420437
C           48.21439181727172       -2.97066029746830        2.03852166996191
C           46.97102915263992       -2.37465641256396        1.66123978326320
N           47.16053362831447       -1.46234144378363        0.65922192061047
C           45.76843668455789       -2.58107030856238        2.34142571686041
C           45.76248716078871       -3.44995930501230        3.45258372093187
C           45.75659561854015       -4.20374723931040        4.40379712721195
C           45.75076793586093       -5.08240299532314        5.51115378147024
C           44.58909844375361       -5.29441577348332        6.26280495004506
C           44.63655823498327       -6.16448426851528        7.33750939104754
N           45.73930548541699       -6.81662289201884        7.69662711863180
C           46.84753474903766       -6.62103139575009        6.98683457618972
C           46.90636094909360       -5.77250572535234        5.89556072838933
C           44.57570060120822       -1.94474084636497        1.98462537742119
C           43.35504435039058       -2.05472622852863        2.71989820472132
C           42.40463510843401       -1.41484486783716        1.99267297418952
C           43.04953700018262       -0.93273325067242        0.81139427987801
N           44.38529435911101       -1.22027755036997        0.84181342248648
H           41.28018890378343        0.38273121182476       -2.80154900649580
H           43.18808309681010        1.32747852311975       -4.46793866572087
H           47.82559212315611        4.00553968576556       -6.56208180076170
H           47.73126134424004        5.32211207003754       -8.67276097523763
H           43.75070404780362        4.45533479945933       -9.21874927671828
H           43.66200970997681        3.10015716383374       -7.13268144653273
H           48.29434779959181        2.47364421745410       -3.75054541353160
H           50.19760785428267        1.52202747651337       -2.08323594497243
H           50.23978416510316       -2.53626298449618        1.30611625690824
H           48.32602670782928       -3.73370168765722        2.79197488004292
H           43.66966445499946       -4.78334120721851        6.00417260324453
H           43.75077268130049       -6.34809768887402        7.93863927635114
H           47.72843943973892       -7.16940247108147        7.30778518743679
H           47.82999670345708       -5.64207151235994        5.34476347990232
H           43.25162175610487       -2.56236307822193        3.66545598131112
H           41.35635291611985       -1.29271660804648        2.21330925992190
