193
 energy: -366.335369959630 gnorm: 0.000607220088 xtb: 6.5.1 (b24c23e)
Fe          36.01818741942524       -0.04628351498845        0.02321656228150
C           32.63034278576637        0.05425270010965        0.03818090671558
C           33.27700318853056       -0.15801210533404        1.23847288198885
C           32.59805447526325       -0.36677133856002        2.48178477176998
C           33.55252046861180       -0.43316090037250        3.43923622331609
C           34.81530972347917       -0.26324265081384        2.77946767046337
N           34.63276531993614       -0.11537158737625        1.43043271567693
C           36.02723382916680       -0.12601145096639        3.44548333673244
C           37.23107272931285        0.08644801048608        2.78765942568752
C           38.49087603964533        0.23754130987908        3.45305860824929
C           39.43917413146372        0.29532510314133        2.48770697225331
N           37.40973830533950        0.07691626145696        1.42507919900162
C           38.75936270689089        0.16585256340345        1.23670028975145
C           39.42362146570916        0.02730577555385        0.01522774765153
C           38.75353803171759       -0.13661244683650       -1.20031291961971
C           39.42206786380827       -0.33679413729212       -2.44774429849748
C           38.46532958062896       -0.32793149776667       -3.40710765973036
C           37.21505831433039       -0.11062170533906       -2.74227076176108
C           36.00400462904158        0.06025437601843       -3.40040439399304
C           35.99846053713762        0.08486401486319       -4.88121541577309
C           35.28039568637269       -0.87118312232110       -5.60424287850769
C           35.27374732917630       -0.83978797846474       -6.98660546392496
C           35.97883496569584        0.15175229017314       -7.67145586687082
C           35.93190641201805        0.15054441672793       -9.15346088625347
O           36.63322877237986        1.14766574113500       -9.71337925235063
O           35.32757412909677       -0.65549618817582       -9.81404497391970
C           36.69745369707681        1.10846028219712       -6.95394369293103
C           36.70864165209992        1.07098950052236       -5.57065922445843
C           34.79751751473740        0.21732050122670       -2.72818553917342
C           33.53916055692211        0.45005086923927       -3.37696764845663
C           32.59349469513791        0.45085746341770       -2.40851510173919
C           33.27463886463239        0.22694608958572       -1.16900132970295
N           34.62719931053158        0.13350388742824       -1.37203941025180
N           37.40456428752172       -0.03422921537855       -1.38410124340698
C           36.03002969756371       -0.20359461128470        4.92638141161933
C           35.71798143351833       -1.40481019143439        5.56731117036793
C           35.71950025841883       -1.47832813850671        6.94818047304129
C           36.02672097466318       -0.35088824278574        7.71211923063898
C           36.00961419155740       -0.47822628747559        9.18937302813783
O           36.31459927937752        0.66032678388517        9.82987888981634
O           35.74927042828807       -1.49467684711925        9.78123396454785
C           36.33621839249308        0.85138132583117        7.07571368046278
C           36.33996059220330        0.92145310343081        5.69328388960085
H           31.54656477120277        0.07933778673129        0.04299977433210
H           31.52763661297181       -0.44179755210743        2.58886094358803
H           33.42529858555374       -0.56684349546934        4.50121739553223
H           38.62405484652734        0.27639806104289        4.52184848029766
H           40.50692048557183        0.39603504205227        2.59735567852538
H           40.48651118447219       -0.46666376613003       -2.55903124576881
H           38.58444480883117       -0.46179249610719       -4.46992246391490
H           34.74022534117864       -1.64744323013904       -5.07437756640557
H           34.72273727312093       -1.58129511188341       -7.55463920706430
H           36.54951990390832        1.07905615329995      -10.67830500319891
H           37.24438264139579        1.88103746028854       -7.48131049764264
H           37.25690355619969        1.82148440843721       -5.01247298010486
H           33.40980864581660        0.59551828079113       -4.43714214978596
H           31.52776914049209        0.58435458630263       -2.50490210908230
H           35.48773367824843       -2.28278664677761        4.97465800545617
H           35.48338998404117       -2.40838260610016        7.45350083177458
H           36.28031056991545        0.49393184658637       10.78593004798491
H           36.57173786252375        1.72954650894983        7.66518736699376
H           36.56944328068992        1.85819001588284        5.19816831160980
Fe          62.83513641604347       -0.01655510727215       -0.04044276463226
C           66.22088403301831        0.09283869697648       -0.05304257492758
C           65.57124299346663        0.01334876446604       -1.26805139964425
C           66.24559054389123       -0.05383420440001       -2.52944574989450
C           65.28773871547462       -0.00841375960297       -3.48497966122715
C           64.02765252734056        0.08868243968014       -2.80569739036972
N           64.21498740036047        0.07774426033415       -1.44954026496832
C           62.81438817713991        0.31347802246663       -3.44583312239915
C           61.61465816588621        0.45592566330437       -2.76218637158106
C           60.35384188680000        0.70128904238731       -3.39688585754733
C           59.40919928872066        0.64016045060574       -2.42793845072472
N           61.43987529754717        0.27232137655283       -1.41139534031816
C           60.09219253322411        0.34335235021367       -1.20755673264832
C           59.43084953797862        0.03442249879334       -0.01474602804879
C           60.10610681626058       -0.29186483078846        1.16578549025782
C           59.44400822800011       -0.66273551084885        2.37701763489175
C           60.40367391345016       -0.76705944873942        3.32806000687241
C           61.64901016507967       -0.44831224453039        2.69556412000881
C           62.85945448835720       -0.34093226456725        3.36777152046767
C           62.87155726952604       -0.49973867359051        4.84006605516460
C           63.61144142494145       -1.52400633573218        5.43670584108508
C           63.62570609626702       -1.66355183039079        6.81227624268186
C           62.90702165557630       -0.77742052575241        7.61697970744105
C           62.96257877940428       -0.96123199695861        9.08738541007218
O           62.25001241984577       -0.05187670774527        9.76899727381560
O           63.58205343162511       -1.83389174679839        9.64049918291159
C           62.16682026055504        0.24688534693044        7.02592381476454
C           62.14754596165603        0.38010178915953        5.64860407343093
C           64.06126022921839       -0.08264883226632        2.71765205556925
C           65.31843344151370        0.09011713372210        3.38707648459922
C           66.26125793744031        0.21456203043820        2.42364721090743
C           65.57929263438173        0.12617961393728        1.16761283114851
N           64.22855147137831       -0.00591180455738        1.36112840613787
N           61.45389524530802       -0.20032656720688        1.35868167458744
C           62.80499390800346        0.40938372691318       -4.92547897993530
C           63.10344303377093       -0.71264340322655       -5.70212711558436
C           63.09327655362459       -0.62719807222759       -7.08221662648178
C           62.79086233962105        0.58277150414276       -7.70964701389756
C           62.79892771617988        0.62584884633364       -9.19181827790966
O           62.49759790803791        1.83211223988552       -9.69539144588055
O           63.04951470603228       -0.31735228201498       -9.89815891130920
C           62.49514576330043        1.70635393976065       -6.93737611592279
C           62.50010228659903        1.61739546975898       -5.55601348792195
H           67.30454855565672        0.12315210319748       -0.05775804125917
H           67.31547150159226       -0.11826642807956       -2.64821434683718
H           65.41115361193343       -0.01962930952995       -4.55574064951900
H           60.21705342245104        0.87951572117880       -4.45096195591486
H           58.34194746391186        0.76217223836703       -2.51917566205653
H           58.38147435079434       -0.81857676188204        2.47212979274891
H           60.28972843573943       -1.03978580813659        4.36456020120512
H           64.16264966062018       -2.21840245334883        4.81290992075258
H           64.19359874941345       -2.45898424795881        7.28227249484218
H           62.33926039902493       -0.23861921997981       10.71767483172774
H           61.60957826737651        0.93829321727538        7.64685223747342
H           61.58243517895544        1.18335865845969        5.18946556965366
H           65.44908766627226        0.11425049549734        4.45675460883753
H           67.32550029786346        0.34951416714089        2.53340300944753
H           63.32960632033011       -1.65458692842234       -5.21560994719540
H           63.31855733027357       -1.49491692792717       -7.69248377022420
H           62.52660370618189        1.77673926591676      -10.66441426366809
H           62.26324522392152        2.64806642150599       -7.42061369923366
H           62.28139839128074        2.49289551255034       -4.95523931027171
C           42.05210203698291        0.04830526890752        0.00757538297699
C           40.83050110069059        0.03620747974784        0.00931237667233
C           43.40307766925381        0.05598193154082       -0.00070684360217
C           44.62492029894592        0.06212788994799       -0.00130437246694
C           55.45391201975890        0.04199578610661       -0.00488318690572
C           54.23141406109632        0.04474436010205       -0.00962413393196
C           56.80347737571146        0.03776301375064       -0.00681557040698
C           58.02585041114585        0.03508842967997       -0.00723281355263
Fe          49.42891832035770        0.05051336717806       -0.06580759176153
C           46.03040408648511        0.06022891497988       -0.00495008515946
C           46.69951802018085       -1.14966329149157       -0.22122268894566
C           46.04289356498909       -2.39104768770844       -0.48622815357808
C           46.99654700148846       -3.35381070210548       -0.43610490520392
C           48.23154675168870       -2.69642488445718       -0.12915073575443
N           48.04056697236374       -1.33965984588755       -0.05447628208908
C           49.42400596376677       -3.34970890906981        0.16338346149794
C           50.61525327173901       -2.67116954281065        0.39551182377967
C           51.84839292376466       -3.29870449454201        0.76637153518856
C           52.80408607613544       -2.33787810366366        0.72436313114897
N           50.80718541999602       -1.32527154323207        0.20437145959362
C           52.15094228086637       -1.12703712131577        0.33721528879442
C           52.82765280484667        0.04753674972978       -0.01075547631219
C           52.15675713683950        1.22428901708140       -0.36476681246719
C           52.81185040216382        2.42733933779593       -0.77152464600488
C           51.85883485583241        3.39091326362183       -0.82177919894995
C           50.62581684539369        2.77325506771488       -0.43461617662177
C           49.43614032386130        3.45605621118117       -0.20541459907403
C           49.44069280441951        4.93302434494754       -0.28826867161469
C           50.28799708514953        5.68257090639377        0.53275275512842
C           50.29125076136040        7.06298512311137        0.45730919890769
C           49.45239975434259        7.72027354261504       -0.44459419169397
C           49.49584701124186        9.20198366238553       -0.49154483111345
O           48.65326005982820        9.73527711352582       -1.38847988571595
O           50.21060701213326        9.88287456706305        0.19874991835239
C           48.60687365426536        6.97688390392678       -1.26853849915054
C           48.60052945416341        5.59542326608262       -1.18722925578123
C           48.24411434795591        2.80705253872849        0.09911293686610
C           47.01146112551520        3.47115968981185        0.40189441023473
C           46.05470822846618        2.51225468906274        0.46012981486831
C           46.70692689637213        1.26637452191368        0.20515430933721
N           48.05126635267029        1.44879694293334        0.05170082470530
N           50.81709986602115        1.43252494175885       -0.21257237533457
C           49.42694161334630       -4.82799219350764        0.22514575962005
C           48.59927706780037       -5.50136213331314        1.12768787130509
C           48.60609393957577       -6.88290355320801        1.18274547494122
C           49.43424702875970       -7.61703947502639        0.33171888107978
C           49.40101877198629       -9.09705521925565        0.42400033875383
O           50.22893358194046       -9.70661233932940       -0.43711454755473
O           48.70574048040687       -9.71458551342175        1.18960418655901
C           50.26034477160197       -6.94965929121595       -0.57299058285397
C           50.25784723909929       -5.56672175824110       -0.62140600722945
H           44.98757800503711       -2.49813857752656       -0.67890177249822
H           46.88302626473273       -4.41401659310265       -0.59351616158425
H           51.95932773773492       -4.33948713160039        1.02354370971149
H           53.85951441932298       -2.42822126420924        0.92485357225927
H           53.86579651690461        2.51103046370338       -0.98253036860261
H           51.97145000543748        4.42648604451509       -1.09860680687701
H           50.93052135008256        5.17458658506880        1.24284566415721
H           50.94192236331898        7.65078735061305        1.09541577915923
H           48.74217082898815       10.70175229861198       -1.35793407821695
H           47.95689831906436        7.48290256815052       -1.97250550461216
H           47.95354165083080        5.01755630355346       -1.83748425229014
H           46.90106502766969        4.53314607924701        0.54908983427502
H           44.99925178911273        2.62423172209979        0.64930926035014
H           47.96458371266350       -4.93261113719530        1.79759492594824
H           47.97131514476155       -7.41209766408103        1.88493340903943
H           50.14764250493383      -10.66657557009359       -0.31538536499441
H           50.90220969815640       -7.51568977890725       -1.23760053159998
H           50.89042178378404       -5.04817516954447       -1.33297640859835
