122
 energy: -208.525184076074 gnorm: 0.000939657538 xtb: 6.5.1 (b24c23e)
Ni          12.64939172672610       -0.04082912879310       -0.00977600016680
C            9.26114415169758       -0.05670615558067       -0.15277199112716
C            9.91027572196928       -1.26792904055265       -0.02967686438930
C            9.23270537801015       -2.52350345852696        0.07740448663134
C           10.18894865825862       -3.48208082603442        0.07555831732265
C           11.45002436809919       -2.81165726405637       -0.04794704858979
N           11.27006698380472       -1.45058805072761       -0.06765715624919
C           12.66747437369152       -3.46474385638729       -0.19423579358725
C           12.68305952109447       -4.94405879838016       -0.28584829979565
C           12.05007537390104       -5.59500483665425       -1.27332788093680
C           12.04511492053333       -7.09810512307206       -1.37641008639657
N           13.10533277195473       -7.68745811007477       -0.55411131133904
C           13.57860510410855       -7.02510990202246        0.54888234693853
C           13.42977147922583       -5.69849693795466        0.71101233750066
C           13.87537756756770       -2.78256201799697       -0.26638739917990
C           15.13809580048258       -3.42319887522475       -0.47490981322039
C           16.08569324648629       -2.45815698920241       -0.39550666866246
N           14.04653107992858       -1.42611685517456       -0.10250589582252
C           15.39999151415538       -1.23070003612783       -0.14577707724940
C           16.05779140879766       -0.02259976505639        0.10232562459525
C           15.37256908190821        1.17708999663171        0.31606656924940
C           16.02763472848232        2.40997568437592        0.61520968895278
C           15.06597160068040        3.36424207916641        0.64173194518694
C           13.82667086879271        2.71179132764026        0.34796463268174
N           14.02290533420635        1.35818685427548        0.18791619654349
C           12.62014116026366        3.38173142802736        0.19117347803782
C           12.61370293086741        4.86122941699686        0.28537391596045
C           11.90874627274727        5.50390203515325        1.22824193140057
C           11.87859624624943        7.00652713766870        1.33317992166620
N           12.96681540894758        7.61434368645693        0.56246390068982
C           13.52270313153237        6.95448953284906       -0.50226101972795
C           13.41231649463896        5.62399810149911       -0.66343777698445
C           11.42476980641690        2.71804693059474       -0.05436972992142
C           10.17233484296574        3.37798132170327       -0.27998094706671
C            9.22947181785529        2.41074440130507       -0.37289153497456
C            9.90746660205912        1.16061951132753       -0.21565709159470
N           11.25700684036153        1.35531119176695       -0.05896652511893
H            8.17835230069972       -0.06147136232351       -0.20071168726027
H            8.16225725646323       -2.63641998373992        0.14550548037500
H           10.06489838417863       -4.55003256479168        0.15289909597165
H           11.49620945632475       -5.06835524949994       -2.04175130373597
H           12.21248609591225       -7.40681170376751       -2.41705498903622
H           11.06017987805400       -7.49908257731404       -1.07110172985278
H           13.05436204281169       -8.69343298625584       -0.48334639999690
H           14.15468200915394       -7.63755278297113        1.23524269865754
H           13.85362476269995       -5.18342654845221        1.56129535006463
H           15.27153061736547       -4.47682809223233       -0.65827424378361
H           17.15532437162327       -2.55289058403357       -0.49143940585229
H           17.08789554608415        2.51528177110207        0.77977088685173
H           15.17595960902109        4.41804945639068        0.83912382584046
H           11.31047761227974        4.96989191692869        1.95729319893881
H           11.99219757622048        7.31471104598240        2.38140680455168
H           10.90344526939838        7.39422339459153        0.98319425435076
H           12.89759495004441        8.61823991918785        0.47934894509590
H           14.12709624705435        7.57486970028635       -1.15635027100621
H           13.89994042504447        5.11276466373483       -1.48118581038854
H           10.04550464820118        4.44548212301040       -0.35880337724714
H            8.16792158327576        2.51423214650514       -0.53302278258317
Ni          28.64071332925125        0.04118821977437       -0.00189949349636
C           32.02921069374062        0.08505913969750       -0.13360488210856
C           31.38031516842171        1.24204764241547        0.24576230380107
C           32.05825117576833        2.44491839610480        0.62074221631492
C           31.10240677384908        3.38223054284371        0.82332993934962
C           29.84123652490324        2.75484703896514        0.55701246413812
N           30.02067254888640        1.42958354578879        0.24594545186089
C           28.62439639436780        3.42521965086150        0.55248985450257
C           28.60962467537680        4.88968070364169        0.78072153345376
C           29.24433842866544        5.73718735087054       -0.04290351693047
C           29.25022853932817        7.22729254214237        0.17962207150271
N           28.18928093132290        7.62696779805149        1.10816997948655
C           27.71398779616821        6.74330908111917        2.04226897649082
C           27.86178361248452        5.41275056329194        1.91546053540980
C           27.41622819351990        2.77545299004531        0.33421366887122
C           26.15403000722330        3.44676030723071        0.26630638531348
C           25.20593460948776        2.48767874919901        0.13661749068809
N           27.24424827460426        1.41552033903115        0.20365495979393
C           25.89091310838090        1.23484973688176        0.11793428991773
C           25.23220247830876        0.00218495844784        0.10071256556916
C           25.91657850560824       -1.21595191811991        0.05225571543863
C           25.26082326851090       -2.48404905595614        0.07929360593249
C           26.22205196754985       -3.42222112065647       -0.09948768622908
C           27.46192846255431       -2.72264915364206       -0.24498096779994
N           27.26646876954358       -1.36617414212944       -0.11043055588897
C           28.66824095343779       -3.34440122938173       -0.54068227344681
C           28.67377323388475       -4.80968454223616       -0.76603611648710
C           29.37711242157003       -5.64002674585696        0.01810450179026
C           29.40631360913114       -7.13027461804944       -0.20117808189549
N           28.31917398157147       -7.55795103729019       -1.08600062831988
C           27.76517306872443       -6.68482221768272       -1.98528919125344
C           27.87627995713451       -5.35076742660822       -1.85736836218766
C           29.86440820501930       -2.64462011502897       -0.63636893272166
C           31.11687192953362       -3.24154712518986       -0.99686409819420
C           32.06025894190187       -2.27757024573228       -0.87860782207025
C           31.38257889410115       -1.08995576142537       -0.45729517137443
N           30.03273965376671       -1.31284720452534       -0.34783460699521
H           33.11207007251232        0.09940646984183       -0.17797965417085
H           33.12864150647997        2.53978597761030        0.71296943758021
H           31.22665778030865        4.40862064056864        1.12825264318988
H           29.79911542556176        5.38761303866016       -0.90581325664003
H           29.08441822923501        7.75267156486697       -0.77050148508418
H           30.23499734442934        7.55240123785145        0.56514809038678
H           28.24090760387388        8.59408306971129        1.39383412870183
H           27.13728563706395        7.19432317766208        2.84353900715929
H           27.43634249518797        4.72721241384986        2.63446744011073
H           26.02121453390912        4.51532074517531        0.31245164006907
H           24.13644909462682        2.60145418400569        0.06207193842048
H           24.20037815096948       -2.62164921144026        0.21651751891014
H           26.11157677908946       -4.49373784329801       -0.13343094701464
H           29.97452837655893       -5.27507062726247        0.84545092009979
H           29.29064472138655       -7.65569942647118        0.75654412670043
H           30.38188681682403       -7.43492703921760       -0.62444828804880
H           28.38799538731026       -8.52079923625032       -1.38214242637432
H           27.16158084661031       -7.15014913311237       -2.75804116906397
H           27.39009153719250       -4.67584352029124       -2.54725384302612
H           31.24351362660232       -4.26725672938161       -1.30304904385580
H           33.12197977244847       -2.34498795529295       -1.05595115015853
C           21.25892516738470       -0.01917908521032        0.15652749139355
C           20.03093112650079       -0.01429736786133        0.15849501680527
C           18.68568262869691       -0.01375949805762        0.15232762370718
C           17.46241995699097       -0.01454276417245        0.13490733812759
C           22.60418697631041       -0.01767356285850        0.14786246289394
C           23.82758035694988       -0.01056046865941        0.13125339575046
