252
 energy: -480.410823850548 gnorm: 0.000663014631 xtb: 6.5.1 (b24c23e)
Co          58.02410136605940       -0.54281871256880        0.23878586621316
C           54.96157225878432       -1.80729659860869        0.66147652886672
C           55.56322902453936       -1.18541371229802        1.73583976745625
C           54.91796213890527       -0.98813838373553        2.99885044656662
C           55.67930239165253       -0.10768844181880        3.69081814156223
C           56.82745847376013        0.17682911169029        2.88058317014631
N           56.74242131265852       -0.48569955577793        1.68515823513564
C           57.89013844862531        0.98749073522761        3.26531332238705
C           59.07474603761984        1.02430493198307        2.54360555912615
C           60.29457686019093        1.58339725826735        3.04549583441457
C           61.28456337817548        1.16714146698141        2.21851369954762
N           59.31394942016787        0.33636888693476        1.37690835261790
C           60.66260240243784        0.40551759865069        1.18248752464083
C           61.35208080949567       -0.14831088011320        0.09817354596401
C           60.67738782555998       -0.60622671238035       -1.03797249565602
C           61.32431589050129       -0.87071405609297       -2.28484232977257
C           60.34462917193305       -0.99513456253683       -3.21349979036996
C           59.09880590733646       -0.86461642377610       -2.52036214179818
C           57.85643977446764       -1.06001872140304       -3.11161590296122
C           57.79204943075410       -1.16077040166724       -4.58664783651073
C           57.38988704231595       -2.34066282677443       -5.21721009491354
C           57.34675668272212       -2.41285421543659       -6.59757263061080
C           57.70295420388313       -1.30756179871441       -7.37237377595175
C           57.63782404458894       -1.43414508560901       -8.84835506045119
O           57.99791615662023       -0.31768505654387       -9.49911854752873
O           57.29762707529516       -2.43224402406996       -9.43084040583018
C           58.11204103376350       -0.12922613369215       -6.74724100137819
C           58.16024768906703       -0.06094813001363       -5.36613916658736
C           56.71633829676004       -1.26817346274597       -2.34564502913984
C           55.45797964333337       -1.72238040082897       -2.86237422421572
C           54.69275984065347       -2.05280298883901       -1.79484124200882
C           55.45226071830953       -1.72541305125330       -0.62659320977893
N           56.67861847577169       -1.22448947449786       -0.97497879869174
N           59.31912685834403       -0.63635654167101       -1.18553136541846
C           57.81456039453905        1.74096619657227        4.53834705800119
C           57.71691096051750        1.07367702475909        5.76173503189723
C           57.65025079722032        1.79036163448599        6.94245535640681
C           57.67925089035236        3.18591962517098        6.92142730401270
C           57.60014227171503        3.90857732965063        8.21392333801069
O           57.64143877377469        5.24314700130864        8.08618869034289
O           57.50697496706835        3.37151229142956        9.28817379435300
C           57.78452644228793        3.85610483010806        5.70233739542154
C           57.85576743656914        3.13695702170750        4.52192289180199
H           53.99694139778371       -2.27687809162737        0.81461037364771
H           53.98014458015938       -1.43794531458536        3.28336038129256
H           55.49232002600376        0.31044265066011        4.66640986603651
H           60.37695602871311        2.17731789654044        3.94120886145301
H           62.34220599363436        1.36602910414159        2.28273105269677
H           62.39224137515912       -0.91360369500284       -2.42565940664238
H           60.44391686279673       -1.19048377113091       -4.26888958756031
H           57.13362362445977       -3.20785318048861       -4.61961416548115
H           57.04041019003802       -3.32680458913472       -7.09442996951621
H           57.92786579120333       -0.48186544793241      -10.45358724547480
H           58.39249558997686        0.73006745061248       -7.34475804115459
H           58.47335844035899        0.85526904188807       -4.87836623150498
H           55.20915723087985       -1.79435647798789       -3.90857417547763
H           53.69008154798519       -2.44910679003326       -1.78132497449847
H           57.71395622193773       -0.01004500450257        5.78270314943730
H           57.57767603136043        1.27973456248315        7.89645086958254
H           57.58421081023951        5.63886111049365        8.97106622119863
H           57.81009614315194        4.93917366519297        5.68181977019128
H           57.93132800046477        3.65626460168350        3.57323726242738
Co          90.24495360410292       -0.55604440234398       -0.35132288789693
C           93.23677327265955       -1.90994646328939       -0.95118208485678
C           92.65809091947982       -1.14802934646947       -1.94553278814977
C           93.30530077736609       -0.83990119731546       -3.18502021632608
C           92.56730552929081        0.12807209705871       -3.77878570315513
C           91.42799002687508        0.35670056056695       -2.93888550516296
N           91.50305914245286       -0.42012419203800       -1.81338502223837
C           90.36837489623336        1.20173699345442       -3.25074404386548
C           89.18549282843243        1.18163670609661       -2.52494430038191
C           87.96172922298368        1.76767751876741       -2.98410650762197
C           86.97889498220458        1.30465974901739       -2.17371532601290
N           88.95543557225875        0.42473725479702       -1.40057716609837
C           87.60966829698408        0.48901829597340       -1.18533006956556
C           86.93405224339176       -0.09060799886570       -0.10497401629292
C           87.62826868685949       -0.58956283810314        1.00279396124482
C           87.01108914384996       -0.85957519521492        2.26331893538754
C           88.01374632966413       -1.05841287389773        3.15386720856383
C           89.24078610181026       -0.97093175842394        2.42127796435604
C           90.48536683354860       -1.28454406234187        2.95297646474023
C           90.59426354765210       -1.47659413149114        4.41660756738554
C           90.91389688033388       -2.72219418760266        4.96231619416040
C           91.00420185054529       -2.87921731352220        6.33329809283839
C           90.77808810648054       -1.79483328131181        7.18285974691379
C           90.88943397513764       -2.01397368890283        8.64530806117196
O           90.65268006288966       -0.91222157377220        9.37257902017096
O           91.16449338723967       -3.07021151035256        9.15509682932968
C           90.45105651482889       -0.55074267784833        6.64262819316867
C           90.35552266795744       -0.39697145530114        5.27077847701266
C           91.58077239949760       -1.53175123518682        2.13409709443583
C           92.81432590294528       -2.11544335151990        2.57478486572190
C           93.52764426145598       -2.41099792950631        1.46196887685766
C           92.76732291123635       -1.93366155227984        0.34702123944561
N           91.58512023337302       -1.38574801994524        0.77079819564344
N           88.98722618526280       -0.68108969864261        1.10368187754652
C           90.43716561099596        2.05460029331809       -4.45944160852414
C           90.53633886848898        1.48888630452323       -5.73289778551032
C           90.59030234872122        2.29891696053365       -6.85232418330461
C           90.54705456222828        3.68784809811003       -6.71888485039540
C           90.61062254447766        4.51307633144404       -7.94928922040669
O           90.56078148465009        5.83254263056600       -7.71368491967000
O           90.69866478527291        4.06532042399225       -9.06423482409923
C           90.44096073532239        4.25679580496897       -5.44941315030196
C           90.38211473867770        3.44435593810708       -4.33056659645640
H           94.17469965647923       -2.40822377426481       -1.16694494460535
H           94.22925532938405       -1.28405041107471       -3.51950378866651
H           92.76339233033306        0.63905528575232       -4.70727501170169
H           87.87164721516399        2.41166089300259       -3.84370390588120
H           85.92135654101646        1.50836089758965       -2.21743838476670
H           85.94758662428434       -0.85485622683194        2.43975997697322
H           87.93976981626240       -1.28051110388210        4.20606012401234
H           91.06914467794618       -3.57140355209411        4.30680612090237
H           91.24795306432625       -3.84385140700401        6.76484510851915
H           90.74462018525149       -1.13810304402991       10.31248388770003
H           90.27135785548705        0.29273992922886        7.29861083265035
H           90.10628746644043        0.56997212340407        4.84846143552546
H           93.08308888087818       -2.28992160427296        3.60379937278033
H           94.49867509909654       -2.87396088998604        1.38699607204759
H           90.54890269203008        0.41043993644958       -5.84113727709323
H           90.66316241820314        1.86735075824662       -7.84457802167344
H           90.60801306697036        6.29897265068726       -8.56405087163570
H           90.40379387763770        5.33434596392917       -5.34185623719929
H           90.30464070915508        3.88459613409331       -3.34286762542347
C           62.75668609579503       -0.12593407551307        0.08822633006814
C           63.97387228221843       -0.12574447759294        0.06086547758653
C           73.53474863398984       -0.16890562540336       -0.13165169549458
C           74.75195376172746       -0.15395935897866       -0.06610351937104
C           84.31340999146965       -0.03752243711507       -0.04007524180049
C           85.53089250983859       -0.05144046970918       -0.06958605830040
Co          68.75200865153705       -0.12935243416216       -0.16316551370864
C           65.37685589663597       -0.12582027897412        0.00125208415485
C           66.02453856816588       -1.13590169989527       -0.71862974291961
C           65.35338644021610       -2.17005806853917       -1.44003349285373
C           66.29606809178168       -3.08471787554447       -1.77839411036369
C           67.53773895102873       -2.61338781919667       -1.24383468741488
N           67.36802799127004       -1.37706718022930       -0.66748658692685
C           68.70294021694531       -3.36567221158215       -1.15620332684828
C           69.88189026204164       -2.83156161746439       -0.65026530058515
C           71.08719325813594       -3.57042260945935       -0.42676053678777
C           72.05103305520291       -2.66382880244360       -0.12869230320083
N           70.09457332458463       -1.49384680529607       -0.41848373123555
C           71.43375078618138       -1.37685239916262       -0.17395247656386
C           72.13374621979492       -0.16460427266662       -0.18060924698625
C           71.45872684825567        1.06223315963663       -0.24298267445232
C           72.09757474273594        2.33110569271975       -0.38547689385726
C           71.14805012989919        3.27438505691249       -0.16475241225800
C           69.93486296975637        2.57435929533636        0.13079144643282
C           68.79064938076942        3.15341690106155        0.66350641503166
C           68.80080190452780        4.59097612854650        1.00553393699220
C           69.76273296130098        5.10556082569149        1.87959133358729
C           69.76802615872920        6.45087333314714        2.19766321673067
C           68.81531963117126        7.30855870109995        1.64450342088428
C           68.86507413190412        8.74411163413812        2.01333066707125
O           67.90382642009433        9.48007828094168        1.43601453499229
O           69.68062802949603        9.22653466139453        2.75702582675774
C           67.85351207152078        6.80054894047594        0.77082191407319
C           67.84622307066438        5.45264980779383        0.45816536004751
C           67.63817399571612        2.41117646285926        0.89794007480949
C           66.45748413682992        2.90743974162037        1.53660644490569
C           65.49631446875533        1.96534436606795        1.36615735802644
C           66.09370996598946        0.89789262167848        0.62880462119640
N           67.42097906783475        1.14433870973645        0.41435176453773
N           70.12337302954067        1.21863853574453       -0.01028645824834
C           68.68416245597132       -4.77816425545869       -1.59094262871347
C           67.77516549037817       -5.67974833590264       -1.02977219707564
C           67.76347322644429       -7.00163472779843       -1.43431679390375
C           68.65621969179472       -7.44641415036597       -2.41119298308025
C           68.60322264720277       -8.87297342108364       -2.81350053263424
O           69.50785400843249       -9.20065064178555       -3.74790269529973
O           67.83162630946762       -9.67873807304349       -2.35945025714880
C           69.56424443886181       -6.55036685888343       -2.97607157111618
C           69.57870331214764       -5.22899752430450       -2.56546809631796
H           64.29517345659920       -2.18848468597853       -1.64498097386731
H           66.16949846327071       -4.00052149751012       -2.33242069256564
H           71.17516281697843       -4.64284743320152       -0.48942607887680
H           73.09188288803918       -2.83787891001027        0.08979594070627
H           73.13813253882691        2.47010794159876       -0.62840840743359
H           71.25223664919723        4.34678046739115       -0.19296029358291
H           70.49372625932844        4.43879875809494        2.32251756143175
H           70.50793790782556        6.85583551238945        2.87925150689110
H           68.00498607853039       10.40114429664189        1.72634776339822
H           67.11424707065420        7.46333110862756        0.33692658742314
H           67.10746114499038        5.06048155776818       -0.23161670929022
H           66.38236943848818        3.85479864837444        2.04521407756497
H           64.46832051820314        1.98747110939645        1.69004678023415
H           67.09178837687497       -5.34022594489136       -0.25981559649677
H           67.06507866430154       -7.70769630161676       -0.99861600801967
H           69.40900578597086      -10.14429464143952       -3.95456725109558
H           70.25649179638903       -6.89080338047116       -3.73699908614205
H           70.27557845264587       -4.52989347677995       -3.01382531384863
Co          79.53162683246809       -0.05511313124397        0.08458093302813
C           76.15173696095491       -0.12665916821557        0.00556870307194
C           76.86519738330740       -1.32916751209629        0.07773194041890
C           76.26314714705718       -2.62402767794926        0.07456544344013
C           77.22476886738748       -3.50305961836152        0.45226930942354
C           78.41340294314794       -2.73960407241878        0.68089887572944
N           78.19547218061236       -1.41769475896720        0.37591150231416
C           79.57974898564515       -3.23361061732954        1.25337068473075
C           80.73574818967290       -2.46701571829234        1.33433423800698
C           81.96797733445965       -2.90220874374263        1.91918613818229
C           82.91387491480788       -2.00316828892700        1.54933003743457
N           80.91167123927595       -1.26012353405136        0.69923799709536
C           82.25288065584560       -1.01136434347906        0.76233165944310
C           82.91056308485584       -0.03107823210879        0.00984352543027
C           82.20105815255305        0.96730608299727       -0.66597281855872
C           82.80904541240635        2.01392280891794       -1.42409694043202
C           81.84783355068292        2.94528519537516       -1.64497912757997
C           80.65493795384694        2.46167664910873       -1.01982891496358
C           79.48854233074469        3.19992878129690       -0.84954602181501
C           79.48312253745006        4.62546642015653       -1.23920565143824
C           80.41270820525668        5.50954187519194       -0.68350309823634
C           80.41208977757005        6.84305083037902       -1.04764818936487
C           79.48699207056958        7.31740751213557       -1.97960371430143
C           79.53097983174700        8.75458135329690       -2.34321790025804
O           78.60268654337573        9.10876614235674       -3.24416943132417
O           80.31590685113285        9.54674288323841       -1.88792415622853
C           78.55917335531626        6.43895621053657       -2.53981323281246
C           78.55722958087908        5.10559853855908       -2.16937755932688
C           78.33029483851780        2.62610059185242       -0.34258189855357
C           77.09804457065502        3.32155414531529       -0.12533173135035
C           76.15110715389585        2.37558346295726        0.09416242337897
C           76.80988373071297        1.11042325613465        0.03101933332972
N           78.15190062703472        1.27452688834250       -0.15463578255199
N           80.86842551021202        1.21411346543745       -0.48765198606093
C           79.59361072666461       -4.62085890062792        1.76308438652170
C           78.66737794134842       -5.02737814627383        2.72792070772736
C           78.67959923862828       -6.32532494957821        3.20381179914544
C           79.61316114289619       -7.24359192377501        2.71959885297590
C           79.58369258097112       -8.62530143602959        3.25806640916356
O           80.52139134595642       -9.42632415749353        2.73116433174724
O           78.80239152997160       -9.01420445197939        4.08825815590369
C           80.53675329919116       -6.84456578150796        1.75309104477795
C           80.52684573211178       -5.54344632930940        1.28223395925281
H           75.23283961556169       -2.82106938049990       -0.17245781678324
H           77.14552384347499       -4.57206936347333        0.56502030276399
H           82.08682448076846       -3.78585116694161        2.52475555429953
H           83.96782372794803       -2.00517232188316        1.77586778919702
H           83.84368518624983        2.03233409953651       -1.72561104248946
H           81.93032500525531        3.87661094099658       -2.18124954769554
H           81.12373732215588        5.14550296924571        0.04934833431933
H           81.12669422328376        7.53529981870029       -0.61610887445240
H           78.69740418705383       10.05781375321165       -3.42667631831679
H           77.84252933575914        6.80204369845774       -3.26695010172620
H           77.84679801856515        4.42041305211733       -2.61792280149960
H           76.98060566611653        4.39273199255008       -0.14578346702516
H           75.09973980397952        2.51096697975356        0.28739742246831
H           77.95003637461932       -4.31242648943957        3.11445979085598
H           77.96790291688325       -6.64580227959845        3.95673097979004
H           80.43606795201353      -10.30627038150616        3.13290428869403
H           81.25957296924977       -7.55547225056052        1.37066628471264
H           81.23404613028853       -5.23862964493885        0.51913596399492
