132
 energy: -250.141996854540 gnorm: 0.000775227117 xtb: 6.5.1 (b24c23e)
Fe          13.20227364399550       -0.01430801009825       -0.00791014053056
C            9.81493138143457       -0.00356423652527        0.17068722391703
C           10.46606582593581        1.21218031480747        0.19748418643765
C            9.78906866126535        2.47254953175431        0.25785418519802
C           10.74787749601862        3.42380338941736        0.34566203608543
C           12.00963730685197        2.74102412037231        0.35035751421327
N           11.82432609292590        1.39043802360096        0.22962011208008
C           13.23608055212996        3.37851339477412        0.49806504803027
C           13.24957720196778        4.84700749338853        0.70615451906773
C           12.66548121584780        5.40357296091963        1.84009042733643
C           12.68330075606999        6.78357235217056        2.03855318115982
C           12.05068960297706        7.31703908408582        3.27143423151659
O           12.13725242969626        8.65032115180398        3.38392374627244
O           11.50802647648206        6.63841600368081        4.10519334940152
C           13.28230478160073        7.61787917856759        1.09489459850215
C           13.86087865510789        7.06554821704698       -0.03707081089434
C           13.84920303274592        5.69139593108433       -0.23086436935624
C           14.44775161667075        2.70372574866517        0.46466993590072
C           15.71856332647154        3.33477550981081        0.66313057994576
C           16.66087493300373        2.37690965259994        0.49140994752989
N           14.61446338689364        1.36251585978536        0.21379671604255
C           15.96313087175859        1.16455015758081        0.19748216083613
C           16.61390262756399       -0.03534358868573       -0.11518071648217
C           15.92838125221436       -1.22676432429457       -0.38181670627201
C           16.58763951617607       -2.44274027469270       -0.74150667991170
C           15.62490864408893       -3.39056902849323       -0.84215591226396
C           14.38099314720096       -2.74996396659435       -0.53383522504381
N           14.58177577899179       -1.41366598859090       -0.28175519428337
C           13.16425745596943       -3.41361711127339       -0.46959894161957
C           13.14650347691064       -4.88150710416526       -0.68215370769642
C           13.81885826876120       -5.73111027566938        0.19882870149741
C           13.80177583360947       -7.10550149129522        0.00579392288932
C           13.11914142499258       -7.64707646004597       -1.07050389529153
C           12.44583136794740       -6.80759599435639       -1.95927230791748
C           11.72974338604562       -7.42678638485438       -3.10301961942443
O           11.10464306676304       -6.53863642390890       -3.88929061370546
O           11.69632677101333       -8.61048349124644       -3.32255160476044
C           12.45785962745029       -5.42817966832726       -1.76255421711780
C           11.96062511427433       -2.76589116015359       -0.21525500720663
C           10.69744222346787       -3.43729297658008       -0.10621323709428
C            9.75921865283100       -2.47835264555211        0.07351962617092
C           10.45076458081469       -1.22459983767451        0.08325684815500
N           11.80000693979458       -1.41533984265870       -0.06194573761436
H            8.73186424886505        0.00090257875728        0.21917754078565
H            8.71776888653762        2.59320174874702        0.23363182381000
H           10.62565492703156        4.49335329473307        0.39993822995152
H           12.20440577009240        4.76866882418136        2.58873370080506
H           11.70550049810953        8.91864155370461        4.21127131097192
H           13.29222614854785        8.69002813509816        1.24928355676067
H           14.32505700477405        7.70877686049620       -0.77606736873350
H           14.29585622167187        5.26575753006960       -1.12244824861863
H           15.86102535536559        4.37485919573641        0.90714581284646
H           17.73313829073597        2.46835228200352        0.55483642452945
H           17.65007587226348       -2.54216225356193       -0.89518287467534
H           15.73582348432264       -4.42919842710455       -1.10780146116462
H           14.34511490823081       -5.30872683973866        1.04747563647451
H           14.32361093248867       -7.75356413830681        0.70062903419389
H           13.09742328919447       -8.71810337122822       -1.23730695331942
H           10.66405329620923       -7.01987630924952       -4.60843397488131
H           11.94373890888646       -4.77730340304467       -2.45978441395997
H           10.55992464348027       -4.50510720116750       -0.15839329027711
H            8.69290677103029       -2.58954297104097        0.18969162742042
Fe          31.75017811838739        0.00246866161698        0.05233794611536
C           35.13783235095838       -0.05352982122012        0.19643782740173
C           34.49147011742284       -1.21052681173526       -0.18581345910158
C           35.17356601153734       -2.42183646777284       -0.52945378981098
C           34.21823428854703       -3.34901980519734       -0.77314175255062
C           32.95323940193943       -2.70477685967072       -0.56544996224056
N           33.13364815567740       -1.38654214664482       -0.24422712320021
C           31.72801766177378       -3.35622901061819       -0.64757379740688
C           31.71578116923597       -4.81216681448292       -0.92992301282054
C           32.29510725443337       -5.70938101414425       -0.03765310148728
C           32.27422421868711       -7.07870476653450       -0.29968289341632
C           32.90046991575606       -7.98653241225174        0.69454649166678
O           32.81465684040091       -9.28320554372363        0.36447490123810
O           33.43893782937742       -7.61810590950454        1.70673398930784
C           31.67677297697007       -7.55851851785330       -1.46508501062068
C           31.10295483786689       -6.66599285651047       -2.35688880553962
C           31.11776863014766       -5.30374779505938       -2.09244005253375
C           30.51441518453489       -2.70953237378737       -0.46332477930333
C           29.24541395527545       -3.37425050589467       -0.47680125133857
C           28.30119656289173       -2.41596511770387       -0.31785150338592
N           30.34457459996580       -1.35957781687332       -0.26896681111630
C           28.99592621095286       -1.17213137845318       -0.20342117350511
C           28.34203746373302        0.06260322569536       -0.10717464013992
C           29.02457441347865        1.27792640836073        0.02521910368277
C           28.36202852092315        2.54312831429316        0.08106804277779
C           29.32331263325889        3.47541366098364        0.28607672783001
C           30.56920316556623        2.77256062662194        0.36732497105168
N           30.37230623343174        1.42691369960491        0.16583899808490
C           31.78333764227122        3.38090027053999        0.65099385553177
C           31.79964972630498        4.83786104401937        0.92929186208242
C           31.12438087437259        5.35381420265696        2.03729549035309
C           31.14374451965547        6.71566386134723        2.30475958344952
C           31.83112181003628        7.57806911781262        1.46723971602572
C           32.50758574130056        7.07409222174566        0.35531008329374
C           33.23051787956881        8.03159176906429       -0.51929991459965
O           33.86157355916980        7.44769295847165       -1.54814681009051
O           33.26177938495020        9.22240601429671       -0.34218783579302
C           32.49359233889002        5.70626254525971        0.08990992431011
C           32.98655019449015        2.68574575053704        0.69638343591922
C           34.24451342466915        3.28402192967577        1.03944639892478
C           35.18419775101423        2.31785949075482        0.91354012769914
C           34.49853086967188        1.13009021078556        0.50218290073184
N           33.15206286665876        1.36108783253479        0.39551084729341
H           36.21999424212664       -0.07520049879621        0.25867750148471
H           36.24573348955196       -2.52886469542513       -0.57222968927436
H           34.34502257389489       -4.37791597615269       -1.06822723177503
H           32.75384701086774       -5.35456215594806        0.87876881799757
H           33.24253624082952       -9.80758983719340        1.06080200193442
H           31.66382910230435       -8.62250236643277       -1.66804895728155
H           30.63958210222552       -7.03214043668457       -3.26602685995393
H           30.67437280032124       -4.60966412312222       -2.79758233496096
H           29.10553843801685       -4.43753411667594       -0.58393538134005
H           27.22954009904806       -2.52664394753415       -0.27986430459694
H           27.29853277260383        2.68374001628054       -0.02603386509029
H           29.20972289181531        4.54367227436505        0.37295407245845
H           30.59438884173356        4.67814501680449        2.69921249989684
H           30.62037344640467        7.10176347521855        3.17200137090382
H           31.85541930191562        8.64455303996917        1.66065597281101
H           34.30501673135726        8.13681437210898       -2.06906399890318
H           33.01087264671688        5.31791427607676       -0.77938258181009
H           34.37734839372676        4.31027440057171        1.34119549588852
H           36.24758108533494        2.38376076509950        1.08012179705708
C           18.01338644221308       -0.04069137104201       -0.16090433473875
C           19.23948643049238       -0.02838832268359       -0.18901481130331
C           20.57837320443289       -0.01186585115940       -0.20974654544784
C           21.81075123274574        0.02043911608851       -0.21568764583099
C           23.14488568142198        0.04100780211840       -0.21083318493323
C           24.37738847668426        0.06482990784125       -0.19625401709432
C           25.71630025871778        0.07321629074186       -0.17366214295088
C           26.94238489365647        0.07788199511978       -0.14331365458046
