236
 energy: -398.909166467807 gnorm: 0.000558659327 xtb: 6.5.1 (b24c23e)
Fe          45.69801834828564        0.48868682945832        0.15436847659342
C           42.33278152204263        0.38943687122120       -0.20647221427677
C           42.96786009362413       -0.75255356518953        0.23811261253998
C           42.28262939734194       -1.95661581039776        0.59913765880805
C           43.23618744804192       -2.87222422053114        0.89323516965691
C           44.50392604962666       -2.23231985491436        0.68723883030398
N           44.32387114072291       -0.92125115194114        0.33633683438561
C           45.73003918405952       -2.88624637164829        0.75027476140502
C           45.75173083562600       -4.34451128873511        1.00765579568992
C           45.14040365407835       -5.21376790027578        0.18677922163072
C           45.14224300832801       -6.69954335896780        0.42758581830097
N           46.13741548024224       -7.07632965124512        1.43332065382350
C           46.60616113787972       -6.16765859395812        2.34176858853832
C           46.47624286120730       -4.83935854591211        2.16754683445548
C           46.94016169850941       -2.23144399276612        0.55825078863151
C           48.21026964530547       -2.89295811985458        0.51719959423725
C           49.15062041383359       -1.92621078521498        0.38727403323713
N           47.10571337806808       -0.87542554375703        0.41565479207251
C           48.45459505740593       -0.67810905167409        0.35477734483991
C           49.09844389453202        0.56420843783554        0.35670166831662
C           48.40238894963834        1.77830194909387        0.32286252236532
C           49.03687725561413        3.05367743776247        0.44032850482769
C           48.06719085444914        3.98705910020887        0.28483758275705
C           46.84382364839703        3.27743725377575        0.05596074490429
N           47.05989176006818        1.92204946289019        0.13083316278370
C           45.64043628583857        3.88814097388709       -0.27098771184817
C           45.60757425918282        5.36168268995358       -0.41663068250949
C           44.81507974630721        6.12290049572646        0.35502440750835
C           44.75340499604572        7.62150143133201        0.22912086431927
N           45.86796300399897        8.13638400566041       -0.56893964741120
C           46.53098163416604        7.33536926620005       -1.45788894813796
C           46.46703307848657        5.99195872380626       -1.40621637882803
C           44.46649125205145        3.17063219241795       -0.47900661822069
C           43.23209187030168        3.75481926920972       -0.91878576888848
C           42.30715202648983        2.76561645275823       -0.91606479649831
C           42.97742917544303        1.57922596406716       -0.47607464294044
N           44.30654782912596        1.83030923875164       -0.25503525731317
H           41.25627592542234        0.35553109247027       -0.33216202786699
H           41.20989597930136       -2.06667649894886        0.62471926624693
H           43.10434755505010       -3.89026249932413        1.22233868846890
H           44.60350855739951       -4.88376602238238       -0.69487900000418
H           45.37804882583821       -7.23393271278224       -0.50330917274242
H           44.13820191448561       -7.03426105921794        0.74819117013821
H           46.07801392079118       -8.03647370052472        1.73832257946511
H           47.15530680882863       -6.59778984169637        3.17323977152404
H           46.89489882221025       -4.13634391403323        2.87349994118638
H           48.35351395297302       -3.95983508318341        0.57392840364162
H           50.22095121318731       -2.03504229295834        0.32012316650508
H           50.08768826856694        3.20231922622773        0.62893945384639
H           48.16267289978826        5.06017175295498        0.31936415678574
H           44.16769229033688        5.68935911588641        1.10831236905036
H           44.80128300856904        8.08768251606573        1.22309730037865
H           43.79253935832401        7.92578860711436       -0.22598361790830
H           45.79088498258123        9.11393226505133       -0.80782519265108
H           47.17075847789846        7.86422081879724       -2.15713080941195
H           47.03434684013131        5.37574444549533       -2.08908712507793
H           43.10388430395889        4.78785127284099       -1.19916884501988
H           41.26213499061642        2.81718641370660       -1.17825764101054
Fe          78.15632656584887        0.32348224332672        0.17626626031726
C           81.52334224090097        0.11160529115808       -0.06608142329272
C           80.95524503124174        1.36925098400305       -0.03649345878176
C           81.70721554531222        2.58742676692089       -0.06110162431703
C           80.80845209625464        3.59649169620447       -0.15343166198695
C           79.50823948387323        2.99166101940737       -0.20297542139583
N           79.61122301375657        1.63253988263448       -0.07596592659548
C           78.32656489133640        3.68832959729049       -0.43528042340597
C           78.39372721978869        5.14399298261672       -0.69867272620752
C           79.08643742348589        5.64149300264644       -1.73578351330371
C           79.17876047002785        7.11703120885222       -2.01893557945481
N           78.17701922947651        7.87000038026398       -1.26142113365948
C           77.62496734927134        7.35911855155689       -0.11831069652582
C           77.67149277132714        6.04823441805337        0.18247009009816
C           77.08202514349462        3.07098138956895       -0.43722299665618
C           75.85308277148469        3.74097789761315       -0.74320976635560
C           74.85667281719682        2.84834639041531       -0.52767584514879
N           76.83633614096885        1.76544410387344       -0.08861759524787
C           75.47806686466343        1.63484744671635       -0.09739218693976
C           74.76738128920124        0.52948623084454        0.38323546807490
C           75.39251682427290       -0.65377972050582        0.79279892405750
C           74.68699222814151       -1.78014849965820        1.31975151199656
C           75.58941089599746       -2.78425895416825        1.43721429495243
C           76.84315204539965       -2.27063939203048        0.97102033357129
N           76.71443344597731       -0.94696454570531        0.62671402264638
C           77.99320351079986       -3.03546408270279        0.82228642633076
C           77.92054654615600       -4.48704999074384        1.10539397004139
C           78.68697984344713       -5.05982023642929        2.04752874601343
C           78.64274359577948       -6.53420150178120        2.34716797024806
N           77.46885993217170       -7.16797472547659        1.74310334500086
C           76.82744571786250       -6.59811389666973        0.67726638247393
C           76.98259749208664       -5.30214882403648        0.34947846371610
C           79.20762890952848       -2.49135339867218        0.41533391656775
C           80.40169485187700       -3.25485852874713        0.19098961969978
C           81.39450817928940       -2.36725648091193       -0.05562297132744
C           80.80417729596623       -1.06418852993874        0.00507070265043
N           79.45820880612972       -1.15660456465099        0.24565858874108
H           82.60250753293148        0.04318007300071       -0.14668162866101
H           82.78328767373483        2.64401739596348       -0.01240220328782
H           80.99739966273695        4.65741387173853       -0.18362399125362
H           79.62643574103980        4.99881391694513       -2.42122025915307
H           79.01314264272546        7.30887134648685       -3.08819265624671
H           80.19175806443316        7.48820163947820       -1.77580159730602
H           78.29512590986360        8.87167069249534       -1.29966950011714
H           77.08232248796223        8.07922175864702        0.48573983132973
H           77.18848975852447        5.65727116643799        1.06663836967016
H           75.77306293975633        4.76240967324348       -1.07830950420260
H           73.79353320793605        2.98972793138409       -0.63648676606006
H           73.63546826137816       -1.79082886108275        1.55759519627473
H           75.42942938673701       -3.78562177711434        1.80297452156130
H           79.38977634495978       -4.48367214412045        2.63798918104352
H           78.59899803656894       -6.69914421412122        3.43277456825525
H           79.56437575134004       -7.02401329763591        1.98168147364721
H           77.47636973565466       -8.17652021631681        1.78163373321912
H           76.12800801933714       -7.25137008939286        0.16546567700524
H           76.43128999654942       -4.85983011073249       -0.46800555817193
H           80.46026809390344       -4.33098115539782        0.21688056259346
H           82.43608190345675       -2.55876354970528       -0.26043240985786
C           50.50239719738804        0.59659029644208        0.41875760751938
C           51.71900579247498        0.62742235635669        0.47471452119151
C           61.33142477007120        0.69216132692629        0.66679326781763
C           62.55045221434150        0.71503618235893        0.69156895024277
C           72.15329497915407        0.68525148437412        0.54275088316901
C           73.36664577691951        0.61260165098796        0.46589776399635
Fe          56.52346541650429        0.73725882831741        0.68152955184913
C           53.12136470618302        0.66500549842020        0.54479914146542
C           53.79034619513305        1.79756383371734        0.05913200756989
C           53.12901636469054        2.95737197445429       -0.44825391712907
C           54.09315628923346        3.76690940884088       -0.95294378220238
C           55.33865370507929        3.08267528608085       -0.77659482474166
N           55.13981834825751        1.90368614663645       -0.09997971115638
C           56.54591075679223        3.49128720194239       -1.33198980394370
C           56.56719193077690        4.69279809034626       -2.19479045582254
C           55.81516182705133        4.77378102260488       -3.30505364823627
C           55.86237042945545        5.95647014761768       -4.23364658075937
N           56.52875686628121        7.10034654697609       -3.60807092152717
C           57.39605559242952        6.93019291426626       -2.56363459537927
C           57.43669345452307        5.80084842437834       -1.83307237494329
C           57.73828191066112        2.80303320610277       -1.13161670260323
C           58.97398726183496        3.11989612010141       -1.78120536565844
C           59.92011114033072        2.31661110080147       -1.23379011798053
N           57.92101514916559        1.77825195806956       -0.23766786677644
C           59.25941671641716        1.51720123925800       -0.25118255802233
C           59.92991486280738        0.69303228673018        0.66266001418728
C           59.25070879037234       -0.08997305999260        1.60784028767442
C           59.90115515598507       -0.84033757538966        2.63432653399536
C           58.93426308403605       -1.54360243809447        3.27489481071259
C           57.69833582361960       -1.23527764960943        2.62008382251615
N           57.90451244962513       -0.29428546523445        1.63963342991379
C           56.49468107496543       -1.88647571103671        2.86052752588950
C           56.46595546914621       -3.00313734052324        3.83030285979324
C           57.24283450539070       -4.08869066972258        3.68134766627416
C           57.23579095432650       -5.23336040766534        4.65843703079794
N           56.07874078786414       -5.16564242604155        5.55342622733870
C           55.42642968437072       -3.98415097474549        5.77725843720186
C           55.55145336021415       -2.92352799619286        4.95855689732214
C           55.31040583507403       -1.54357917328653        2.21302915047780
C           54.08129300825571       -2.26556560191621        2.34518350983894
C           53.14055836401696       -1.56261941998603        1.66738849139865
C           53.79694477690570       -0.41447168782938        1.12605575167721
N           55.13022168992173       -0.43985129232782        1.41972793354183
H           52.06421033229273        3.12165872870279       -0.41795911900476
H           53.97842257811291        4.73766330432699       -1.40700709486391
H           55.18927134505128        3.95053624920740       -3.62926410460145
H           56.38047870153882        5.68442203224362       -5.17203365419613
H           54.84250398011035        6.26212894384499       -4.50605711168261
H           56.72248599043796        7.86405489564124       -4.23891569290935
H           57.99100975934731        7.80483084401732       -2.32091368643496
H           58.07866691696171        5.71471463910775       -0.96802593644904
H           59.09271541545694        3.85651847987540       -2.55941007515734
H           60.97160824036456        2.26286242949870       -1.46506607787517
H           60.95948831168057       -0.81679744252630        2.83747663656419
H           59.04148041213502       -2.20827191740450        4.11656490391655
H           57.92269338485344       -4.19250004872234        2.84384118880562
H           58.16993141523809       -5.23240684703895        5.25027461250729
H           57.19591925960603       -6.19068284246590        4.12046531820479
H           56.10967200513130       -5.81976553429764        6.32138635632663
H           54.74430027825374       -3.99398106830098        6.62130213922937
H           54.99090073182051       -2.01500922078333        5.12633161815870
H           53.96231145523185       -3.18999104373381        2.88666176714591
H           52.09173430546621       -1.78288278151138        1.55241352708110
Fe          67.35489927784725        0.89113640347990        0.83371632581645
C           63.95043929805055        0.76817844101074        0.73756204756823
C           64.59932202473500        1.86049354281741        0.14190663851526
C           63.91038056753003        2.97812489001500       -0.42113016547670
C           64.85812968667349        3.80374757768907       -0.92979096889435
C           66.12170475454700        3.16850007799612       -0.70310208905878
N           65.94613801345615        2.00278538277762        0.00533131880280
C           67.32595666676885        3.60802962300344       -1.23588986373993
C           67.33351824542791        4.80595567371354       -2.10444028952287
C           66.61242110224990        4.86080966768811       -3.23632739131973
C           66.65171320880100        6.04196935391609       -4.16750725789839
N           67.26387529664264        7.20734116229108       -3.52625792763781
C           68.10695797111148        7.06537188435147       -2.45790905128814
C           68.16028121858500        5.93969054207373       -1.72261077072245
C           68.53176549122806        2.94296577607138       -1.02776414444841
C           69.75323205349750        3.26931419493342       -1.69911829510273
C           70.70467453228538        2.44010654814996       -1.20310462861593
N           68.72972534096556        1.90547519953393       -0.15470890186033
C           70.06440507751216        1.62431906661356       -0.22027450379460
C           70.75429102542569        0.76596791587564        0.64223899961276
C           70.11208177188716        0.02728272610430        1.64566296641943
C           70.80771873363791       -0.70158203099693        2.65791479346526
C           69.86327649942815       -1.30960958709284        3.41804621102626
C           68.59484580300163       -0.97768139429653        2.84207050149490
N           68.76427400745305       -0.10970835790570        1.79009889924104
C           67.38776036172099       -1.55832182709602        3.21390642767732
C           67.38192429741602       -2.59000042733917        4.27475646736638
C           68.09848979048493       -3.72079538906471        4.16875333361396
C           68.10909925494558       -4.77883461920238        5.23925935479089
N           67.01516990594467       -4.58509389562469        6.19338448297342
C           66.42977475984804       -3.35916489517613        6.35690985139841
C           66.54721551382934       -2.37523073447795        5.44659605504507
C           66.17890137341563       -1.24161409275515        2.60207924293407
C           64.95173354377144       -1.93908184825879        2.84093334940084
C           63.99777527306896       -1.31310659067347        2.10846368487554
C           64.64199481693159       -0.22650973476910        1.44060533329378
N           65.97963844973997       -0.22059784687608        1.70775265676163
H           62.84104050546858        3.11289837612074       -0.40730335038179
H           64.72146968200244        4.75612996053099       -1.41549606855817
H           66.02187526960786        4.01800816905952       -3.57622500131683
H           67.20597256112474        5.78312587533277       -5.08885006232112
H           65.63181990050683        6.31581522315962       -4.47158050850447
H           67.45399963713527        7.97415538058464       -4.15458390388413
H           68.66893563800888        7.95783814286971       -2.20187470844787
H           68.78111614362504        5.87358110189770       -0.84057470751349
H           69.85779333072199        4.02602324930978       -2.45984062359696
H           71.74889621712771        2.38295027939318       -1.46450571970417
H           71.87920230903502       -0.72254719931895        2.77490308569664
H           70.00675479562419       -1.92688860451757        4.28978247130011
H           68.71417624322768       -3.92663232197413        3.30105627147123
H           69.07852391667191       -4.77041840673617        5.77118833407545
H           67.99685073176262       -5.77475785305522        4.78880673240660
H           67.07067369159157       -5.17342624263069        7.01164150320063
H           65.80279916467701       -3.26872850505596        7.23814051861967
H           66.03621025465267       -1.43105707729427        5.56995833520603
H           64.84476030346656       -2.80155975367078        3.47861713874638
H           62.94976601346021       -1.55126941355362        2.02595864406012
