156
 energy: -244.756560092888 gnorm: 0.000799938703 xtb: 6.5.1 (b24c23e)
Ni          13.22176055625099        0.03540532588241        0.01229402202585
C            9.82026816596985        0.11537560333989       -0.04279798626207
C           10.48611709131785        1.19793081083090        0.49325429004037
C            9.82167278647225        2.34620735883717        1.03129905731096
C           10.78993455917934        3.21084172221472        1.41489713878784
C           12.04451314402700        2.58919022591247        1.10833268227709
N           11.84903435025803        1.34777952121962        0.55671023603454
C           13.27147638357845        3.20037733536692        1.31630467563692
C           13.29312384508847        4.58083833226321        1.87764130874969
C           13.18316063109216        5.68101706808988        1.02229459761347
C           13.04309332918884        5.46867317694656       -0.46157502880334
C           13.20266920999271        6.96465713056117        1.55495615495173
C           13.32862518321253        7.16797688770775        2.92528130801580
C           13.36868634957977        8.56292705837571        3.48836997491859
C           13.43819611608392        6.06556233548291        3.76669915578402
C           13.42153712474938        4.77286282549302        3.25625054336172
C           13.53896863724455        3.58471393631897        4.17332417772777
C           14.47832328777656        2.58765506207934        1.01945597766945
C           15.74895828660962        3.21496363791707        1.22001940751988
C           16.69126556774669        2.30758876129137        0.86819077529471
N           14.64027845967741        1.30925780825914        0.53421057165685
C           15.99376387849708        1.13122316048548        0.45422147445922
C           16.64377557324981       -0.04270579143451        0.06161358567626
C           15.95176046756192       -1.18658545283394       -0.34676196743811
C           16.60638716427899       -2.39564372689304       -0.73585199782844
C           15.63414867771254       -3.26061258293601       -1.11227262914605
C           14.38822536178398       -2.57433041011499       -0.95321112289210
N           14.59435817791326       -1.30282173757814       -0.46609078080722
C           13.16438090036307       -3.12984373213234       -1.29041482291487
C           13.13690450050312       -4.50915515870828       -1.85443828644373
C           13.29908659000740       -4.70419672734813       -3.22971760917547
C           13.50596227456527       -3.52114636463024       -4.13751513701485
C           13.26662768920716       -5.99419793917903       -3.74411556481424
C           13.07588464361873       -7.09256751094390       -2.91022136177614
C           13.03444849949563       -8.48010146538730       -3.49141853160384
C           12.91553498684869       -6.88644816945410       -1.54498335617473
C           12.94379123287827       -5.60392605865863       -1.00795474198779
C           12.76500398224223       -5.38869946291612        0.47132372580023
C           11.96124820342408       -2.46087278186612       -1.12415046732716
C           10.68952388347680       -3.02282051907206       -1.47270267303892
C            9.75084970025125       -2.11371887788788       -1.11943202623473
C           10.45056905978625       -0.99784253254317       -0.55853281209670
N           11.80625922947147       -1.21168923214108       -0.57784271282745
H            8.73693382409383        0.14126510353631       -0.05986851561203
H            8.75088232754223        2.45747221566902        1.09526533834290
H           10.68450037194070        4.18520194240762        1.86421120007394
H           12.11086686131566        4.94472732783728       -0.68192340389282
H           13.86563017400359        4.85768884419680       -0.83755093150492
H           13.04139096713300        6.42009667302934       -0.99255445233060
H           13.11694935698442        7.81872021631521        0.89109998713088
H           12.95210019966715        8.58742939268099        4.49563089992780
H           14.40234944348467        8.91295050620820        3.54013015735201
H           12.80828018810143        9.25313114919829        2.85734803603840
H           13.53626644640127        6.21499795341502        4.83699822592168
H           14.44200870455308        3.01635812360042        3.94230848580005
H           13.58302171310223        3.90011943319583        5.21530893561526
H           12.68384632020599        2.91884559650403        4.04379016468144
H           15.88520692407845        4.22018313843574        1.58472055854942
H           17.76439415113419        2.40906666505597        0.88487230557001
H           17.67389869576564       -2.54543494654309       -0.71897744834599
H           15.73418409288595       -4.27316657863200       -1.46826588093925
H           12.68994451475415       -2.80567650215904       -4.02112923758865
H           13.55206595565831       -3.83401137079725       -5.18019372380812
H           14.43673183611690       -3.00921880915483       -3.88539497154443
H           13.39155640499977       -6.14722377263694       -4.81113670227626
H           13.90198846550259       -8.65291632781477       -4.13024055446067
H           13.02338050011023       -9.23380503336349       -2.70422713189636
H           12.13759144882804       -8.60471367654965       -4.10187717790503
H           12.76637185277466       -7.73594979193393       -0.88655520106764
H           11.84897607478233       -4.82610205337384        0.66259115654501
H           13.59975221032622       -4.81390599624792        0.87619343813567
H           12.70518574215093       -6.34020422939296        0.99877861773003
H           10.55281072043510       -3.99104059551120       -1.92684519978266
H            8.67867183848895       -2.17491030366422       -1.21836985145958
Ni          31.80786153585674       -0.03510945289063       -0.02091141856280
C           35.20922206554769       -0.05255138734871       -0.12057201199143
C           34.54366099404542       -1.20590660732967       -0.48037318826755
C           35.20829724083119       -2.40729110512380       -0.88588308485183
C           34.24012280118107       -3.29837623119075       -1.20349052115745
C           32.98544246822789       -2.63794937917114       -0.99372111498523
N           33.18075906663139       -1.35915667230670       -0.53536025915215
C           31.75863792746066       -3.22378716018777       -1.26570249316234
C           31.73754733000681       -4.60902018833807       -1.81510587169766
C           31.84693888209999       -4.81157032496500       -3.19392286414899
C           31.98683445965546       -3.63161524051754       -4.11842938135522
C           31.82776728569328       -6.10694989198577       -3.69734212163277
C           31.70285823536416       -7.20184030872997       -2.84844138100779
C           31.66316650209779       -8.59860481745376       -3.40703751808657
C           31.59429486666922       -6.98804191386780       -1.47811132336749
C           31.61063188579976       -5.70146795529180       -0.95237975364353
C           31.49473203307928       -5.47788747363443        0.53189833118363
C           30.55168783514483       -2.57580353347151       -1.05757371395671
C           29.28115624349324       -3.16703676558178       -1.34804787137457
C           28.33885836320385       -2.26752713187872       -0.97655172401685
N           30.38965691699675       -1.31647660459845       -0.52473987430443
C           29.03629798791352       -1.13169074599527       -0.46151638116789
C           28.38580769671128       -0.01221139728569        0.06639748743280
C           29.07744713480072        1.09515143872042        0.56562210232115
C           28.42284970977264        2.23635364475309        1.12312822966232
C           29.39524520290607        3.11988093281111        1.45322133528237
C           30.64126174357250        2.51451785518582        1.09316897250469
N           30.43507671850008        1.26078539365661        0.56205486233686
C           31.86504654582030        3.14875926205772        1.23564105758476
C           31.89216468714175        4.53401931419571        1.78497913282790
C           31.72779299812427        5.62754142923451        0.92882967660148
C           31.51815473360936        5.40359369676555       -0.54507884898898
C           31.76036858721795        6.91410837044049        1.45174027732035
C           31.95330952033044        7.12839463042235        2.81373116720745
C           31.99508928958217        8.53159918755091        3.35597495934355
C           32.11533549082491        6.03385534808373        3.65504366393635
C           32.08691926229893        4.73698937381934        3.15363544270578
C           32.26657031755428        3.55687166011808        4.07102762573352
C           33.06820252763713        2.55202047653374        0.89063545170785
C           34.33974164359672        3.19952070270382        1.02671184295084
C           35.27827631987177        2.30053807472894        0.64810118029340
C           34.57873825869326        1.10699047791189        0.27998735952638
N           33.22321234531299        1.27335338323589        0.41738505612626
H           36.29247823321712       -0.05833532639195       -0.15366134556639
H           36.27911708292791       -2.53111029393498       -0.91864712192194
H           34.34553105644193       -4.31332246342455       -1.55154902920408
H           32.91976974315940       -3.10174423370874       -3.91590995641993
H           31.16512006893021       -2.92960248952448       -3.96623984003041
H           31.98722997978172       -3.95106892115401       -5.16010637470457
H           31.91302527190147       -6.26433662938320       -4.76759334992258
H           32.07843939158852       -9.31334520038670       -2.69612173301502
H           30.62972436298511       -8.88677260708951       -3.61346082106685
H           32.22497023857011       -8.66051006864337       -4.33933642983669
H           31.49737932460692       -7.83647872954657       -0.80859554084034
H           30.59063421711157       -4.90980593762054        0.75944565002531
H           31.45381970002296       -6.42644314113920        1.06643131129948
H           32.34899806816839       -4.90525215038559        0.89756849059514
H           29.14486021049772       -4.14545920087587       -1.77948701519854
H           27.26577314399211       -2.35173008638234       -1.03629109909691
H           27.35524890739547        2.33327923632749        1.23777860282244
H           29.29529421485503        4.09624454941413        1.89902999486888
H           32.33428403321804        4.80863426660251       -0.95893019526535
H           31.46916851694473        6.35173870087234       -1.07968544432843
H           30.58794954898258        4.85822407130570       -0.71610102075579
H           31.63373189800494        7.76369776896801        0.78863052202527
H           31.12781530626620        9.09911986702936        3.01490102535427
H           32.00601005696734        8.52971381766201        4.44581002626483
H           32.89219149140794        9.04408922193083        3.00225882929151
H           32.26588008645161        6.19021874621997        4.71820965954808
H           33.18214210889727        3.01834916164836        3.81821959252406
H           31.43145161314304        2.86217041344338        3.96564357187034
H           32.32755078598969        3.87756888671523        5.11054228624155
H           34.47650364206067        4.21200050452010        1.37105004272129
H           36.35029419747985        2.41408751163767        0.61669862527239
C           18.04803722377294       -0.06916998327289        0.07781609357896
C           19.27221222180718       -0.07129836537719        0.09403869277997
C           20.61529971515431       -0.07124843137733        0.10364203091874
C           21.84567549496544       -0.05989213863388        0.11464366456377
C           23.18389694023730       -0.04021328386252        0.11881590690024
C           24.41430320724657       -0.02424735202481        0.11612232022179
C           25.75736783807280       -0.01446417333311        0.10831001878586
C           26.98150112657549       -0.00517802404457        0.09420551723134
