258
 energy: -490.881987353366 gnorm: 0.000888188176 xtb: 6.5.1 (b24c23e)
Fe          47.58105467570200        0.14058587308952       -0.46099578309146
C           44.19780339147501        0.13760971467698       -0.35745701213279
C           44.84341163292800        1.35719342082878       -0.35258114840445
C           44.16748003957729        2.61953770523167       -0.34552205010422
C           45.12218755273543        3.57053685349377       -0.21415934971759
C           46.37997355913669        2.88592302780609       -0.12477810374548
N           46.19898859102197        1.53663695957256       -0.26222860333839
C           47.59428576997584        3.50949617282476        0.14448014575958
C           47.60352275211410        4.97096434513507        0.38866572946416
C           46.87514599318669        5.52164316351975        1.43929774075719
C           46.88501263592263        6.89824101180180        1.66065675762607
C           46.08832233016617        7.42578474005794        2.79720724524564
O           46.16674525356758        8.75734065485984        2.93365224076147
O           45.42564917152848        6.74463503515554        3.53688947445957
C           47.62494046197156        7.73580923840644        0.82614054061060
C           48.35042120726882        7.18984622033227       -0.22112216257113
C           48.34295564972834        5.81956222091056       -0.43912028785554
C           48.79908885534970        2.82154853196893        0.18926765061628
C           50.05648082604185        3.41891021879451        0.52907381950130
C           51.00541226718716        2.47183301839741        0.33084129090482
N           48.97790750299966        1.50354294355724       -0.15664723318352
C           50.32465110103765        1.29819491685123       -0.11893191960522
C           50.98464795202305        0.14550571890408       -0.56523671515869
C           50.30337359646268       -1.01252653625086       -0.96157754642440
C           50.95982448918500       -2.18580857914587       -1.44722399551167
C           50.00323604177097       -3.13523975145072       -1.58862298617408
C           48.76555731518873       -2.53927682510798       -1.18039566341872
N           48.96165386484407       -1.22119277886141       -0.84392675916498
C           47.56386905288206       -3.22620681892647       -1.07908999913622
C           47.55326479321329       -4.68369916704595       -1.34790451540644
C           48.32112330189155       -5.55292860126840       -0.56979216351341
C           48.30769725225986       -6.91906277660468       -0.81448554728362
C           47.53212285318897       -7.43345387799893       -1.83997549297690
C           46.76281408609167       -6.57451025462336       -2.62644765307548
C           45.94549246904612       -7.16430016518606       -3.71645907204950
O           45.23949198316381       -6.25837025257258       -4.40852994019400
O           45.90248280677115       -8.34027994508119       -3.97290901213338
C           46.77305746619542       -5.20348454438075       -2.37864870546702
C           46.36610432500638       -2.60484556973908       -0.73902079659239
C           45.11637507946202       -3.29209872613428       -0.58270130783337
C           44.17047278827925       -2.34396363694567       -0.38329720083008
C           44.84421401126845       -1.08069840014552       -0.40575281076222
N           46.19200058605973       -1.25719015645240       -0.57995068542965
H           43.11419591157774        0.13645628529273       -0.32369479871703
H           43.09946000340432        2.74217348227489       -0.43006987420893
H           44.99801450089680        4.64068036785609       -0.17976028377101
H           46.30501207803073        4.88473594124717        2.10673128131520
H           45.62180553049033        9.02216932938274        3.69248499675427
H           47.62894735589679        8.80527777572926        0.99823695034503
H           48.92531985663953        7.83516933208953       -0.87563527783509
H           48.90187739080029        5.39992644088475       -1.26808349083289
H           50.18607439347539        4.43017692913781        0.87885433280232
H           52.07180448210039        2.54744006115331        0.47026071934528
H           52.01698478760173       -2.25983267907692       -1.64540878179075
H           50.11508236795235       -4.14772995126348       -1.94092252096789
H           48.91865728721179       -5.15314350299751        0.24179880043989
H           48.90459910599530       -7.58230161596819       -0.19895804855015
H           47.51016770040732       -8.49785710847497       -2.04476764370238
H           44.73598679888521       -6.72117261598151       -5.09783113584750
H           46.18499094478773       -4.53717165108051       -2.99858716212139
H           44.99152267307220       -4.36209964489585       -0.62052098978349
H           43.10965066909701       -2.46912720342010       -0.23531842706407
Fe          87.72534296853222        0.24971882056311       -0.31719245348782
C           91.10568325513094        0.16284751091848       -0.13995845460527
C           90.45492885669948       -0.96312784726879       -0.60157024161214
C           91.12657798466142       -2.14556777911705       -1.05000313454022
C           90.16443887425353       -3.05513708143618       -1.33243696964277
C           88.90606169747804       -2.43366503485917       -1.03378158480451
N           89.09648809658638       -1.13805324905044       -0.63596256091842
C           87.68131682611094       -3.09224821864548       -1.06506855720359
C           87.65746547250271       -4.53354712900882       -1.40947918913171
C           88.34340425618764       -5.46228370172526       -0.63210862479131
C           88.31901828434552       -6.81650386975361       -0.96332170832359
C           89.07334342365503       -7.75801951794736       -0.09778245433184
O           88.98426580106324       -9.03656227102065       -0.49217872424788
O           89.71318244921436       -7.42961646773510        0.86813464615124
C           87.60570783851917       -7.25067266364280       -2.08045520622648
C           86.92194779384984       -6.32763172451965       -2.85607908775128
C           86.94479192097525       -4.98035246552891       -2.52495314207273
C           86.47921759615419       -2.46032006068062       -0.77765145321049
C           85.21419827236421       -3.13026797286398       -0.71293802838365
C           84.27530625094867       -2.17396309982430       -0.51217824417755
N           86.31431912394783       -1.11202813869485       -0.57011546371099
C           84.96922604581867       -0.92576320618684       -0.45098613956215
C           84.31997640622697        0.31369320176415       -0.38748612323940
C           85.01071656826301        1.53045745153311       -0.31714189832476
C           84.36179389075525        2.80407453589687       -0.32603638215721
C           85.33121321493026        3.73478895963158       -0.15298253062798
C           86.56818288056135        3.02334388409738       -0.02057739866719
N           86.35773629569324        1.67285559183614       -0.16983921022257
C           87.78164187941739        3.62034082906973        0.28958370437205
C           87.81631495503051        5.08312909368164        0.52664571911573
C           87.07300790944485        5.65504887679346        1.56138589351467
C           87.10691043583965        7.02503098778842        1.78191106794704
C           87.87958313400182        7.84022612876450        0.97191501836873
C           88.62740789256364        7.28020814504035       -0.06503408002427
C           89.44446906601003        8.18707616026220       -0.91018115791834
O           90.13350616820091        7.55162588148459       -1.86899357059165
O           89.50032997925950        9.38159445145039       -0.76717318973772
C           88.59628684821287        5.90476006546379       -0.28452333697883
C           88.97033357097698        2.90442607560478        0.39390689794997
C           90.22276706215685        3.47831650483142        0.79445430544614
C           91.15348205889610        2.50093426216494        0.68667525716997
C           90.46892630539863        1.33181015075840        0.22285727176440
N           89.12773946328656        1.58051795302685        0.08839295074303
H           92.18741551663373        0.13279954341379       -0.07429734413486
H           92.19688702882134       -2.24643592462858       -1.13438958087287
H           90.28386480006651       -4.05847934610406       -1.70771981706287
H           88.89138692618600       -5.14510937246191        0.24837788073362
H           89.50330147471459       -9.58436760830175        0.11895490955889
H           87.58960027664870       -8.30293052587188       -2.33715856737263
H           86.36810320347281       -6.65776897495959       -3.72761198152355
H           86.41854133841818       -4.26147704263811       -3.14293410936368
H           85.07367397375938       -4.19526484787100       -0.80154151088751
H           83.20752697678903       -2.28792399016531       -0.41611713978165
H           83.30124857960965        2.95178286262168       -0.45150470491963
H           85.22742022861416        4.80704378434972       -0.11892715965359
H           86.47821657309099        5.01684949538731        2.20517571181381
H           86.52783721103297        7.45459985941219        2.59136687527694
H           87.91642358909812        8.91220931326419        1.12961052121498
H           90.63789650404645        8.21004291359055       -2.37392556996810
H           89.16764752713853        5.47337713279004       -1.09789197067670
H           90.35826008747023        4.49693370092287        1.12004936004375
H           92.21112037379130        2.54980870507859        0.89136536645843
C           53.60525434975335        0.18757940838779       -0.69736423781284
C           52.38319455893186        0.15956879033386       -0.62862769685293
C           54.94702337980826        0.23115417931630       -0.78833414290471
C           56.16634188916871        0.28396230691427       -0.88777980310422
C           66.97569277377487        0.39816017232595       -0.94598421026763
C           65.75157682734634        0.39726642296765       -0.99775119892320
C           68.31965136407318        0.39989920120201       -0.92362716733881
C           69.54461769495872        0.42124810308498       -0.92571951551413
C           80.35489539057659        0.39788011508483       -0.56120778616645
C           79.13411894395921        0.42553848554786       -0.65141190158487
C           81.69771718215073        0.36523972449484       -0.48024092144104
C           82.92052212862626        0.34006880867285       -0.42681477667010
Fe          60.95448440407161        0.46801295467641       -1.24885609276222
C           57.55795458138340        0.35038961054544       -1.01673211371103
C           58.21536934605641       -0.66743337544246       -1.72327427577520
C           57.53013895320306       -1.71270810684402       -2.41547388779223
C           58.48375359423082       -2.50391790040345       -2.96515112208950
C           59.74813896592597       -1.95868312512040       -2.57042263304106
N           59.56414200287235       -0.80265552030054       -1.85055749816598
C           60.97004065148741       -2.58422333047072       -2.78416221936334
C           60.99084875645391       -3.88761383592764       -3.48956497692046
C           60.31575800498604       -4.98921645620640       -2.97209647792543
C           60.34303097860325       -6.21217711008941       -3.64110098824490
C           59.60441976661433       -7.35080614892690       -3.03779172882513
O           59.70430643214730       -8.48678086808963       -3.74215201118949
O           58.96976618405665       -7.28346555700068       -2.01674418183011
C           61.04661029196022       -6.33875773967772       -4.83857050617097
C           61.72102952000174       -5.24319761234323       -5.35464321653092
C           61.69830661999622       -4.02759127817144       -4.68596484960036
C           62.17630661353257       -2.07103708154638       -2.32160679567823
C           63.42128550103821       -2.77691754566841       -2.37284081528041
C           64.36037475357179       -1.94999175287547       -1.85116631496091
N           62.35240200599430       -0.83368390765064       -1.75500256205877
C           63.68748938429659       -0.73918587361562       -1.49954799088667
C           64.35670746421576        0.42085458075099       -1.08549062653690
C           63.69194861569701        1.63191098178805       -0.83857978636509
C           64.37175488982385        2.86577548690053       -0.59906854277641
C           63.41371011115205        3.80509666144944       -0.40620183251742
C           62.15296878743457        3.12998089595465       -0.48927247321345
N           62.34295403937556        1.80473936317565       -0.80313483196604
C           60.93207283307805        3.71286325573570       -0.17810408191263
C           60.90548572919020        5.13548283819675        0.23738494207750
C           60.17798689924204        6.06789416394478       -0.50556672194262
C           60.15107325509501        7.40372575093043       -0.13026160546511
C           60.84334352615523        7.82327550569981        0.99342687058806
C           61.56739076436359        6.89924965591127        1.74810621994743
C           62.29288145893493        7.38830932329304        2.94820306422705
O           62.96466071502356        6.42707233889822        3.59734689021049
O           62.29347277004385        8.53354120612956        3.32013527908319
C           61.59825223986724        5.55874784309530        1.36948477206038
C           59.73114762537904        3.01070757953542       -0.18838372412639
C           58.49274555564075        3.53430297297081        0.30344329931003
C           57.55955742249621        2.56831663079991        0.11734864890359
C           58.22852614690932        1.46903283072150       -0.50370456904671
N           59.55788077376680        1.73212391308515       -0.65332363666630
H           56.45818971104296       -1.80897483204190       -2.47668216231583
H           58.35023765145189       -3.38108970844418       -3.57671112987325
H           59.77650273251746       -4.91366013700204       -2.03421854315831
H           59.19877601567729       -9.17900629595549       -3.28577585454967
H           61.06372473627857       -7.28897772576722       -5.35836817339403
H           62.26919452131428       -5.33447460076225       -6.28546711532057
H           62.22059683552226       -3.17165700985531       -5.09848175250087
H           63.54800326319521       -3.78038586750534       -2.74523505112510
H           65.41608904170246       -2.12585136693544       -1.72184647366043
H           65.44295912252635        2.98685436523879       -0.59622870443198
H           63.54228453627576        4.85850972568865       -0.21865527151484
H           59.64349106481372        5.74147390324250       -1.39063227048291
H           59.58751064878940        8.11763363771759       -0.71995878923281
H           60.83289042332562        8.86282847161662        1.30100985485237
H           63.40680062013968        6.82383466221873        4.36553767539210
H           62.14759930696206        4.84061342330800        1.96654055668966
H           58.36611766680750        4.50824375353645        0.74738786104334
H           56.50950959801224        2.59056499361431        0.36042751216349
Fe          74.34529239321860        0.50079317109293       -1.02759436613450
C           70.94156586357826        0.44840292001417       -0.96239425586493
C           71.61666962815065       -0.62053574772753       -1.57122022140711
C           70.95285389769278       -1.69685341878497       -2.23717447907972
C           71.91955757559499       -2.55283333095953       -2.64970915885033
C           73.16780111400828       -2.01069108738165       -2.20182488127326
N           72.96564560218295       -0.79627491166987       -1.58909225989051
C           74.38198863231572       -2.68022149546767       -2.26482726860545
C           74.42208553386601       -4.03863341898489       -2.85522212869216
C           73.67419013499452       -5.07909674727281       -2.31231643953691
C           73.72343707850874       -6.35304776112585       -2.87714162357267
C           72.90640396307272       -7.42324732624087       -2.25055613293858
O           73.03339732999677       -8.61478585668219       -2.85154346594883
O           72.19052095028283       -7.26023152085639       -1.29618004105387
C           74.52131554413420       -6.59225264027042       -3.99567535959066
C           75.26740573029880       -5.55727821063279       -4.53759792669161
C           75.22312668618021       -4.29132556772578       -3.97180600483371
C           75.56772350041969       -2.14733256415981       -1.76818164498364
C           76.79623209457549       -2.87516770565977       -1.66479669115918
C           77.72760653430640       -2.00472165699644       -1.20211544902891
N           75.74118712279881       -0.85607780778138       -1.34128187489831
C           77.06675276582190       -0.74832459876152       -1.03962877439158
C           77.74108475952447        0.45211480382577       -0.77862647905273
C           77.08102797243582        1.68749531802956       -0.70280970999095
C           77.75811801372866        2.94069051271470       -0.59527434129199
C           76.79857401809829        3.89042812410370       -0.46785142223369
C           75.54024697892014        3.20622964656570       -0.46501271661833
N           75.73086240426919        1.86080565504812       -0.66841868420559
C           74.32197843244425        3.80434187882097       -0.16507669424821
C           74.30048615276820        5.24514018007774        0.17964297519351
C           73.53802686001775        6.13794577413369       -0.57719892533114
C           73.51241632083885        7.48909008600580       -0.26151055615064
C           74.24174740775695        7.96452211220433        0.81554985532349
C           75.00324126066201        7.08140233475618        1.58232457544124
C           75.76800617369287        7.62966658831588        2.73130100398143
O           76.47703256359016        6.70482213186287        3.39384488218001
O           75.76841064955194        8.78970164894633        3.05407114365047
C           75.03260207774142        5.72548769651524        1.26344405178987
C           73.12170012883601        3.10329384060955       -0.13515775013779
C           71.87690871364154        3.65275212818885        0.31161244559744
C           70.93575948850157        2.69611399955576        0.11749610959490
C           71.60839898249174        1.57182866044034       -0.45321521526501
N           72.94539603465259        1.81064154574299       -0.56161860784690
H           69.88590002650700       -1.77069520416629       -2.37252475539439
H           71.80503152781625       -3.47206403402454       -3.20045170762900
H           73.06031005880824       -4.91585127443485       -1.43334802041269
H           72.47339446670969       -9.25680755777269       -2.38548502850793
H           74.55529757745697       -7.58192684833494       -4.43474124504379
H           75.88840957466472       -5.73578035942690       -5.40807215469702
H           75.80197711402884       -3.48308842352615       -4.40455658331804
H           76.91818527107429       -3.91909664454878       -1.90372168700409
H           78.77181933112598       -2.18048704918022       -0.99976317871581
H           78.82867817836247        3.06464767543887       -0.62349234007023
H           76.92448272358219        4.95709842295909       -0.37926081406259
H           72.97509862175346        5.76833461944593       -1.42696254012360
H           72.92035436800822        8.17112010050706       -0.86093396857463
H           74.23194211498320        9.01664416442401        1.07693352555275
H           76.94341848317508        7.13961978441884        4.12625392674201
H           75.61107704725067        5.03962364232197        1.87088718627635
H           71.75035409166379        4.63813412642022        0.72961878470741
H           69.87908703531707        2.73832706991232        0.32707832709020
