258
 energy: -496.914520400828 gnorm: 0.000579540994 xtb: 6.5.1 (b24c23e)
Cu          53.92188025540673       -0.01947861366081        0.00670333752614
C           50.51511627261031       -0.06463694477849        0.01324765060588
C           51.14261288304490       -0.11087168326824        1.24866738919370
C           50.45930655542598       -0.14296630895666        2.51019943199964
C           51.41172454816098       -0.17159158347665        3.47456125443271
C           52.68695323884821       -0.16571895155989        2.80965179101589
N           52.49228617482290       -0.12011127804472        1.45933397821508
C           53.92753913055796       -0.17217787514438        3.45118436549221
C           55.16528119426899       -0.12048997074076        2.80667231283625
C           56.43863686580406       -0.17419648945741        3.46803342724286
C           57.39100596389915       -0.11633762374360        2.50341004608236
N           55.36189325628794       -0.04412445544958        1.45380307164366
C           56.70818431206555       -0.03522565657034        1.24672912415420
C           57.35087475409659        0.03022809622041        0.00012204629680
C           56.70189800346587        0.08020252785231       -1.24401627794793
C           57.37844802357910        0.11533391702020       -2.50619549950356
C           56.42128251007550        0.14007757281168       -3.46754704852512
C           55.15125156927270        0.12864261041779       -2.79785463267224
C           53.91029387905816        0.12669401134697       -3.43815388180615
C           53.90203667763738        0.18539042661369       -4.92051327871905
C           53.37060899470272       -0.87105261526573       -5.66492479957747
C           53.35741757657704       -0.81451943708438       -7.04632773569915
C           53.87084379479661        0.30170239081864       -7.70955449058928
C           53.82787178309940        0.31883826507972       -9.19111767724744
O           54.34847578461606        1.43140657340434       -9.73098448362077
O           53.37353034765620       -0.56760402415114       -9.86895160563558
C           54.40214940487901        1.35943050215027       -6.97089660824854
C           54.41889341179517        1.29819491444038       -5.58832694248710
C           52.67309956470356        0.07278194428175       -2.79231834720039
C           51.39456482726380        0.11930407101476       -3.44919413947027
C           50.44695923106393        0.06476866601283       -2.48120709554970
C           51.13654234573941       -0.00745759319972       -1.22478145019368
N           52.48517042077697        0.00366899379120       -1.44204775393205
N           55.35464257382269        0.08516888999172       -1.44453620085545
C           53.92775559599312       -0.24066189022150        4.93312325217553
C           53.39398452511504       -1.35373773919149        5.58791324739116
C           53.39079488414219       -1.41609826042090        6.96913637382888
C           53.91683540805237       -0.36447192743857        7.72199350755519
C           53.88520222835218       -0.47522857899273        9.19994972491157
O           54.41775572201102        0.58315566597880        9.82940253934066
O           53.43000688089630       -1.41429764650933        9.80209719121941
C           54.45006766261252        0.74964324222498        7.07307869008912
C           54.45659259951763        0.80748555078012        5.69026723702720
H           49.43004866909619       -0.06525149148301        0.01584818538772
H           49.38719733283080       -0.13726932401647        2.62802042138349
H           51.27076063439593       -0.18318591947963        4.54332618927574
H           56.58119512916161       -0.25889793561625        4.53315728395074
H           58.46264236169024       -0.13307752420179        2.62136211677731
H           58.44951648687483        0.11374023170491       -2.63042171338139
H           56.55862980966224        0.15199872151566       -4.53666591206988
H           52.98119030679726       -1.74304397067918       -5.15184603621710
H           52.95033405170719       -1.63268914988735       -7.63028094815177
H           54.28104157022983        1.36425622877159      -10.69729241057983
H           54.79873936811783        2.22901813137573       -7.48151662048229
H           54.81993543581604        2.12581942096040       -5.01413250114195
H           51.24822926665249        0.19699954731470       -4.51446960229831
H           49.37427152167598        0.07791049775965       -2.59299691081135
H           52.99508676227669       -2.17601135774584        5.00478683596135
H           52.98243637745481       -2.27901719127394        7.48363889215177
H           54.35810249355889        0.43358118905948       10.78693461539854
H           54.85598972318368        1.56966341973856        7.65347567388961
H           54.85916973231752        1.67895237620051        5.18635166685392
Cu          94.36593694842354       -0.00120876697941       -0.05493002152295
C           97.77263635454466       -0.04416350212791       -0.07289719162649
C           97.14280002718385        0.05381676382196       -1.30411570443628
C           97.82378206398840        0.16707378499161       -2.56223386420956
C           96.86958681876354        0.25269498095719       -3.52146474564128
C           95.59556856120929        0.18511421054882       -2.85766844393398
N           95.79273193943533        0.07173581973550       -1.51170025480544
C           94.35404191126877        0.26160834089192       -3.49276575107995
C           93.11747050640282        0.24447508091440       -2.84420893857272
C           91.84288543725870        0.28099241960870       -3.50430715515594
C           90.89227167462479        0.22486245255939       -2.53778333288293
N           92.92326186376307        0.15500883837060       -1.49180104242789
C           91.57739905073184        0.14489332841453       -1.28231637862747
C           90.93704637982121        0.04991088446680       -0.03636741880641
C           91.58829285928772       -0.06181905922801        1.20256653710724
C           90.91386385110347       -0.18786201463346        2.46005332416384
C           91.87263686643151       -0.28035238063229        3.41559586904729
C           93.14152870827945       -0.20288043656244        2.74808043612595
C           94.38359026392641       -0.27671383772774        3.38201992376995
C           94.39347990169858       -0.39743828736210        4.86052091177298
C           94.93445323554209       -1.53139591320003        5.47217749908536
C           94.94836772044131       -1.64166386731501        6.85033821948847
C           94.42602971399609       -0.61801117335394        7.64320546903275
C           94.47102684247797       -0.77884848444514        9.11616480779787
O           93.94286916035358        0.25677596886602        9.78598077797847
O           94.93270892416905       -1.73707842038233        9.68208414088844
C           93.88482640213354        0.51635117461199        7.03744236731196
C           93.86760683939983        0.62220136212221        5.65759158774934
C           95.61984766503546       -0.24603460776333        2.73280200574507
C           96.89954520818439       -0.27386610605345        3.38848354071814
C           97.84540135511565       -0.20947143503326        2.41939281925678
C           97.15357273523283       -0.13360188156730        1.16441102391771
N           95.80535264137932       -0.15203855903398        1.38369465830401
N           92.93587858325913       -0.07847133289577        1.40012306416137
C           94.35175950758770        0.36730645252878       -4.97256890323759
C           94.87412553371863       -0.66704318211523       -5.75354989850825
C           94.87559996767031       -0.56825415396631       -7.13262546816439
C           94.35967645659520        0.56911599172246       -7.75686603251605
C           94.38945773177561        0.63132358702539       -9.23760559728799
O           93.86918134721206        1.76206699527393       -9.73838832303038
O           94.83347556100672       -0.23603916197360       -9.94625686320874
C           93.83807767121905        1.60521789424600       -6.98156532724444
C           93.83276374851029        1.50156485587658       -5.60141615180886
H           98.85769717031930       -0.04366503810471       -0.07762082404168
H           98.89569242953802        0.18392772233360       -2.68082645198477
H           97.00855517551720        0.36468179982913       -4.58468732281551
H           91.69820709853826        0.32994917672385       -4.57140240510201
H           89.82036798233722        0.22916286914250       -2.65452247366030
H           89.84304406165791       -0.20847935909058        2.58459925958971
H           91.73702034592235       -0.40297577517587        4.47792978492027
H           95.33058734197853       -2.33193819769496        4.85778294208339
H           95.36297884555438       -2.52072577381898        7.33145270342774
H           94.01173133367818        0.07483786077265       10.73729006798674
H           93.48096876983844        1.31444044376251        7.64906869061240
H           93.45903416740455        1.50956105549474        5.18732544108595
H           97.04784043000664       -0.32346855873941        4.45516071248175
H           98.91826621962585       -0.20647931414557        2.53023026467775
H           95.26549375287242       -1.55531468631546       -5.27076990943075
H           95.27512669420673       -1.36929663221497       -7.74487230690262
H           93.92778613159106        1.72479106879979      -10.70687180260890
H           93.43973114721092        2.49115609807732       -7.46179916280530
H           93.43897146118425        2.31222803713297       -4.99873656737287
C           59.98249400836683        0.03920695732906       -0.00687069183042
C           58.76181829191578        0.03362643313791       -0.00370596321013
C           61.33593214375446        0.03917957261566       -0.01213231268621
C           62.55667183023642        0.03892618641331       -0.01490408329813
C           73.46914963038562        0.02129949133369       -0.02320720103395
C           72.24711402205079        0.01564800087076       -0.04147009057442
C           74.81922329751775        0.02303339730107       -0.00628080726703
C           76.04130606953079        0.02550506168728        0.01103275630500
C           86.95229855970121        0.05881414863763       -0.01132848345574
C           85.73153444874369        0.06043096279114       -0.00441176310391
C           88.30559732364411        0.05844147318790       -0.02194567592693
C           89.52624745503311        0.05429253431340       -0.02873534955664
Cu          67.40337880255954        0.02659420420129       -0.04129604087384
C           63.96692222282602        0.03546587044985       -0.02287027930150
C           64.61069467209948       -1.21266111852284        0.00132532235764
C           63.93028600236763       -2.47308880449729       -0.01189136045676
C           64.88431221054741       -3.43734291491705        0.02734089198524
C           66.15483326197929       -2.77034589669711        0.07404118621012
N           65.95602234607625       -1.41656231988502        0.04868776359489
C           67.39447687308078       -3.41264978108395        0.11638503103049
C           68.63712023309982       -2.77596131643254        0.09990933604641
C           69.90407443697129       -3.44190837535320        0.20910082583475
C           70.86280185660382       -2.48219648150466        0.16458259748372
N           68.84338703206161       -1.42571458898460        0.00252048497517
C           70.18874712197574       -1.22520019044249        0.03577803105403
C           70.84083503338286        0.01802143054296       -0.04943855602367
C           70.19463227635572        1.26410568429940       -0.13899798261570
C           70.87410358666168        2.51700960214295       -0.27801164863916
C           69.91995029943749        3.48140399005392       -0.32055527652254
C           68.65044234830680        2.82262685304702       -0.19801406141423
C           67.41103710056687        3.46621972010337       -0.19927704579162
C           67.41286569571916        4.94809719607915       -0.26122442791400
C           68.00828418123206        5.69731090756183        0.75710680225534
C           68.00244434448113        7.07882519235954        0.70222547758425
C           67.40547032115863        7.73773679208879       -0.37431682052638
C           67.42456366712513        9.21980343743262       -0.38832384252467
O           66.81757676153619        9.75487156395748       -1.45876643970485
O           67.92925754085181        9.90200239309419        0.46694410262201
C           66.81317803203017        6.99441441898645       -1.39578779616721
C           66.81612637575675        5.61179803990285       -1.33619726043551
C           66.16847572364162        2.83016865787488       -0.14205441592122
C           64.90210189255640        3.50332653473119       -0.07525131087172
C           63.94367953236093        2.54375723022149       -0.02704808483166
C           64.61728209308356        1.28003573048134       -0.05359280858952
N           65.96295757480956        1.47734103475588       -0.11850762706025
N           68.85046039385469        1.47157361508540       -0.09924805953014
C           67.38904787347300       -4.89450670782416        0.18654198503853
C           66.81702995039736       -5.54763202176246        1.28142000680085
C           66.81313025585735       -6.92875956691149        1.34615318888352
C           67.37557869917836       -7.68295494087745        0.31455543185601
C           67.34323633644027       -9.16080114305901        0.42740699762345
O           67.90824939265677       -9.79135535981985       -0.61335293963824
O           66.86123203327571       -9.76182990923293        1.35361672627369
C           67.94583615887730       -7.03565009099683       -0.78196822998452
C           67.95405661482015       -5.65297379841061       -0.84160185485338
H           62.85974609175206       -2.59433459017286       -0.05461758583111
H           64.74438920299662       -4.50605549655878        0.01273484795221
H           70.03855307156975       -4.50562320701852        0.32049674047853
H           71.93267555265616       -2.60421357068856        0.22046431048863
H           71.94409785483225        2.63345076572870       -0.34271311545152
H           70.05943830025343        4.54372716723517       -0.43879361768506
H           68.46069079859681        5.18781652143787        1.60030191392390
H           68.45731617480737        7.66635267440936        1.49217017896118
H           66.87341381659813       10.72190945194539       -1.39187452776647
H           66.35220839977062        7.50148423224433       -2.23516526106095
H           66.36594772692514        5.03420633769192       -2.13571252654052
H           64.76739038994212        4.57258383207537       -0.05311209228032
H           62.87445789855747        2.67029265821931        0.03110285859856
H           66.38948846446291       -4.96329355106523        2.08826768215448
H           66.37598386831642       -7.44214595055643        2.19553329966979
H           67.84678913981136      -10.74863496343380       -0.46289635475224
H           68.38026626890117       -7.61717096685138       -1.58648931436681
H           68.38691200066897       -5.15003347061757       -1.69901976085302
Cu          80.88484790805998        0.04360198714096        0.01847194304765
C           77.44756073326420        0.03041632920386        0.02058497389186
C           78.10133673869164       -1.21443105088526        0.05345440872827
C           77.42938833280496       -2.47908027891497        0.03993335540823
C           78.38952626461662       -3.43725583962961        0.08710721653340
C           79.65522218346035       -2.76201138561740        0.13839841290714
N           79.44685570856558       -1.40884754879078        0.10881146429812
C           80.89885853741264       -3.39493282601121        0.18758828949584
C           82.13726858044004       -2.74881346603428        0.17927389045392
C           83.40805584467402       -3.40585372093269        0.29978947111010
C           84.36081839316830       -2.44066316068676        0.25124857578124
N           82.33440508024573       -1.39868979399260        0.07447018414181
C           83.67922277894364       -1.18891035771661        0.10921001862036
C           84.32143840327933        0.05597172849553        0.00495198369859
C           83.66923757893935        1.29598406794002       -0.09389953230660
C           84.34095663838453        2.55174585008634       -0.24670355344096
C           83.38117295421200        3.51000384442878       -0.29286911345921
C           82.11583271835666        2.84497120186032       -0.15856025779978
C           80.87243138264552        3.48188249139115       -0.16208057582619
C           80.86964441786438        4.96282545578141       -0.24396071114023
C           81.46647647989350        5.72805822460169        0.76155550582327
C           81.46792401761377        7.10830814854045        0.68051875688188
C           80.87701137566542        7.74969791022898       -0.40983595707787
C           80.91090403228904        9.23095250642764       -0.45590666348655
O           80.31449033764285        9.74832662073298       -1.54075783130459
O           81.41938839731587        9.92642104624905        0.38631923801887
C           80.27958233488683        6.99037272888338       -1.41639392213454
C           80.27494548559719        5.60912957958781       -1.33051318083980
C           79.63402259837174        2.83952012566613       -0.09940479592450
C           78.36358438214565        3.50519493090330       -0.04088045944538
C           77.41080707240056        2.53979530182141        0.00962901711439
C           78.09208515367989        1.28029036106185       -0.00799851405012
N           79.43595438168735        1.48492078891753       -0.06746131172764
N           82.32329425620787        1.49672805764637       -0.04865721119905
C           80.90789775460006       -4.87716720437465        0.24819163062764
C           80.33800282371524       -5.54696244327536        1.33384463482544
C           80.35217453895314       -6.92866648459361        1.38660907997425
C           80.93065644096947       -7.66655971890428        0.35210214768709
C           80.91828055118133       -9.14555864040816        0.45203285352963
O           81.49991402610684       -9.75898688519381       -0.58993775748090
O           80.43852261120104       -9.76159865831036        1.36957290915644
C           81.49844917494353       -7.00245873376848       -0.73565743938290
C           81.48865760045820       -5.61947877167941       -0.78318069737396
H           76.35984928100500       -2.60758470627453       -0.00710777965642
H           78.25670892823787       -4.50692474188978        0.07493672552094
H           83.54880639750768       -4.46776243272329        0.42035302076084
H           85.43115256631685       -2.55529018481570        0.31326550362796
H           85.40998750934567        2.67340337995010       -0.31734539087003
H           83.51425195068347        4.57205685806478       -0.42030737606641
H           81.91622429747945        5.23218649079488        1.61424784222796
H           81.92586168374768        7.70827920613406        1.45925588218905
H           80.37918831815463       10.71605594709237       -1.49480565868646
H           79.82226732591567        7.48383932608102       -2.26579626085417
H           79.82248211278599        5.01880449464677       -2.11935476341452
H           78.22268918520506        4.57379355065737       -0.02548864721501
H           76.34062946055001        2.66033056424986        0.06286643530542
H           79.89856862564535       -4.97540138630350        2.14341642246571
H           79.91731755030879       -7.45513269759591        2.22911902022274
H           81.45042400713264      -10.71833182796039       -0.44850756619835
H           81.94539745790875       -7.57115928171904       -1.54247526940511
H           81.92035330282282       -5.10331374698728       -1.63330572731127
