270
 energy: -542.623746005921 gnorm: 0.000943266600 xtb: 6.5.1 (b24c23e)
Cu          42.19337880635788       -0.00471286204567       -0.04924085761996
C           38.79089169602209        0.04628865324350       -0.19055610117506
C           39.43152698147202        1.27453421590660       -0.12931005664211
C           38.76129154271715        2.54235704166723       -0.08221469472803
C           39.72336602814736        3.49532116751775       -0.01278786470319
C           40.99167685351362        2.81826786268747       -0.02753984448249
N           40.78284399306501        1.47025395726170       -0.08920832681426
C           42.23831730883094        3.44538300788585        0.03538453679897
C           42.25851760011168        4.93028588674305        0.07588489560321
C           41.74862466975588        5.66723784279815       -0.99294572083140
C           41.77209053440492        7.05663649484209       -0.95603115046148
O           41.28670783886702        7.78245336686238       -1.99279826157893
C           42.29952038501636        7.71383561017229        0.15661743156645
O           42.30599034905809        9.08409834696619        0.16657040862386
C           42.80486128898397        6.97772767657575        1.22520160220151
O           43.30190861356289        7.69250960328947        2.28332970985123
C           42.79028726371900        5.58890441470302        1.18770854456660
C           43.46718892127333        2.78324281042379        0.05992948740591
C           44.74873203264238        3.42981276109833        0.06378672015332
C           45.68920424475449        2.45123335810404        0.07220106368500
N           43.64828830731965        1.42486380332844        0.05425517552325
C           44.99045405197991        1.20153949532911        0.06689786271488
C           45.62003643272846       -0.05616839718995        0.06348039553871
C           44.95494694270170       -1.29462428924372        0.03349377540389
C           45.61744865523264       -2.56408067935442        0.01475000957828
C           44.64975396169210       -3.51413188670791       -0.03428970082361
C           43.38745271115274       -2.83039355980079       -0.03999683337724
N           43.60712338301809       -1.47810687877392       -0.00222807308801
C           42.14145744766557       -3.45474909454587       -0.11381608351041
C           42.11852100808273       -4.94038853525720       -0.14268105241906
C           42.58630965516229       -5.67011324956163        0.94984395932571
C           42.55954701804955       -7.05974182763902        0.92276429505799
O           43.00310783197371       -7.77906512362690        1.98245709354621
C           42.07237809751275       -7.72394117919929       -0.20402432690669
O           42.06266772359280       -9.09439335300872       -0.20435204211004
C           41.60960326907652       -6.99474497969801       -1.29621111175389
O           41.15078054060518       -7.71614143729771       -2.36730320877275
C           41.62609269567884       -5.60566105795792       -1.26835048844974
C           40.91368807834412       -2.79045079098177       -0.16708247128845
C           39.62761755535779       -3.43198985915375       -0.20393703791893
C           38.69226837842714       -2.45027748891248       -0.23032844687680
C           39.39698468894410       -1.20097149585178       -0.20049889517660
N           40.74199925741235       -1.43601281059173       -0.16064247780982
H           37.70628529833257        0.06242742077826       -0.22160218245180
H           37.69047240085244        2.67158205418879       -0.09383213415097
H           39.59284540794835        4.56341788301390        0.05325079169117
H           41.34987060161618        5.16790610140793       -1.86652840999043
H           41.39291601898866        8.72466065256389       -1.78129536947499
H           42.70499151346458        9.37500302158588        1.00200518365800
H           43.63280667139038        7.10176749053268        2.97252684193389
H           43.17395654131829        5.02226914144907        2.02804206354165
H           44.90587962968695        4.49617184463135        0.04641718426557
H           46.76229127221519        2.55683064643784        0.07521479190657
H           46.68694119282321       -2.70032453547682        0.03205697957106
H           44.77519456064134       -4.58397131750669       -0.07458612168515
H           42.95552121969175       -5.16476198391086        1.83287836182470
H           42.90397879221123       -8.72257766761758        1.77342714866053
H           41.69810770569190       -9.39016455874267       -1.05367495297827
H           40.85548202948374       -7.12938463988944       -3.07577521478377
H           41.27515392081522       -5.04431482855386       -2.12635802470731
H           39.46745958077643       -4.49822564011534       -0.19715111074431
H           37.61851820917376       -2.54936062526706       -0.25933717950366
Cu          98.00726277505686       -0.04888199242888       -0.03027545906702
C          101.40755995948612       -0.08000658265214       -0.22033663877478
C          100.76692643368827       -1.30765207037348       -0.29074322640870
C          101.43723965713200       -2.57178642288363       -0.39614024179122
C          100.47575256374071       -3.52743369615480       -0.42435724961244
C           99.20757860529618       -2.85447574589824       -0.34717051022488
N           99.41600574065374       -1.50789804851445       -0.25680903664489
C           97.96166670108533       -3.48615824411702       -0.34262111021055
C           97.94181951696721       -4.96547736176483       -0.47587172793877
C           98.44596753419584       -5.57147609154437       -1.62668864470475
C           98.42422645299590       -6.95560974280158       -1.75274650624138
O           98.90483349781583       -7.55409938825029       -2.86991532463530
C           97.90353955358600       -7.73951655283683       -0.72195897475076
O           97.89840290461395       -9.10153517724151       -0.87254840360191
C           97.40347184556715       -7.13445083881455        0.42821034183230
O           96.91278065358033       -7.96915302349718        1.39788149428045
C           97.41702946750050       -5.75081111750552        0.55399628280449
C           96.73362076852128       -2.83223260491189       -0.22629705542226
C           95.45182090841229       -3.47574784072756       -0.28193475671462
C           94.51223005704593       -2.50561769101824       -0.14700821003720
N           96.55355216964126       -1.48251770023711       -0.07114291172285
C           95.21167800729837       -1.26337851375285       -0.01561209822594
C           94.58267955433817       -0.01442270593357        0.13424310533029
C           95.24811937231385        1.21985941044170        0.23685483365567
C           94.58589552501607        2.48252246796359        0.36987565040383
C           95.55306872352192        3.43328999486411        0.41380061761042
C           96.81498730026262        2.75613984332119        0.31441470851879
N           96.59555607150349        1.40770810302065        0.20378070662165
C           98.05987881421218        3.38669670378423        0.29362635930898
C           98.08324777672964        4.86625538681132        0.42890763150177
C           97.62396051711681        5.47151045622349        1.59839139706206
C           97.65143794214605        6.85574538786132        1.72389473216109
O           97.21571024111775        7.45397807891633        2.85927717509579
C           98.13138733608409        7.63982623100024        0.67362215804655
O           98.14245833324020        9.00181372149699        0.82407612378534
C           98.58597114426125        7.03507057409245       -0.49536321982590
O           99.03846359754918        7.86961404844578       -1.48365196805547
C           98.56816046021797        5.65139322406637       -0.62033073082385
C           99.28650547740682        2.73371151426108        0.15002858844052
C          100.57231074467055        3.37644292442786        0.16959073551401
C          101.50677340055699        2.40487894872468        0.02079466432146
C          100.80187509157872        1.15964467592617       -0.08164869346608
N           99.45750748889829        1.38725579233025        0.00163817292120
H          102.49166071163350       -0.09158304503556       -0.26662680676834
H          102.50780956909028       -2.69766417208928       -0.43502889812407
H          100.60694715172319       -4.59594830463374       -0.48143532314449
H           98.83901409946665       -4.97253477482558       -2.43803246620615
H           98.80070062109951       -8.51477327991452       -2.76989150980702
H           97.50443402344440       -9.48882343095800       -0.07470110596843
H           96.58408904258245       -7.46377976360322        2.15287083896936
H           97.03816754627744       -5.28746843035465        1.45744709652302
H           95.29359825396024       -4.53279099186028       -0.42235415337439
H           93.43918355587510       -2.61154191713354       -0.14265508680232
H           93.51682288717296        2.61477226314396        0.41707173122354
H           95.42719107097794        4.50075130400743        0.49458223675879
H           97.26102580974161        4.87239487257515        2.42348879320636
H           97.31245717762822        8.41490710201702        2.75429734516741
H           98.50035808598916        9.38958147986888        0.00965169053242
H           99.32796881837861        7.36422063010816       -2.25449381393153
H           98.91210954579837        5.18772418041608       -1.53748183197004
H          100.73326194201985        4.43515983026354        0.29500348240243
H          102.58011637593259        2.50758373586060       -0.01038661000291
C           47.02516856767605       -0.07416544826710        0.07688442075633
C           48.24972559895843       -0.08040104605251        0.07543366473098
C           49.59231528792738       -0.08426525162371        0.06606933526350
C           50.82290578752148       -0.08068005497263        0.04574797113511
C           52.16051155985340       -0.07699888111106        0.02756462605376
C           53.39105686233341       -0.06874772965640        0.00260999974105
C           54.73319628011320       -0.06161421695960       -0.01922288040361
C           55.95779486402530       -0.05390375472699       -0.04249044121504
C           65.63523173439540       -0.02324898944904       -0.00255416610247
C           66.86012942716894       -0.02325407892207        0.00161505189474
C           68.20217444050724       -0.02258982636156        0.00314112619347
C           69.43310327940918       -0.02034136834503       -0.00206239931422
C           70.77042345283191       -0.02015785287774       -0.00731783551590
C           72.00135951162324       -0.01939687513672       -0.01535155627576
C           73.34338934010606       -0.01907403798694       -0.02337209664811
C           74.56826476042954       -0.01548816390188       -0.02961359726763
C           84.24541799415282        0.00054048998247        0.04780518694781
C           85.46984630416682        0.00426852388684        0.07838164171480
C           86.81176937236644        0.00683333594740        0.11262138438493
C           88.04231611077931        0.00866242415537        0.13896218023139
C           89.37988845879777        0.01274525709032        0.16147922900307
C           90.61059067809855        0.01606564518212        0.17293624166829
C           91.95321116846917        0.00565010059735        0.17607864675400
C           93.17771041805385        0.00067573160992        0.16347086847525
Cu          60.79684376566293       -0.03556786735834       -0.05178259919692
C           57.36212892244335       -0.04754347940994       -0.05676046244632
C           58.00643669365989        1.19805038042512        0.05873192408284
C           57.32436065089067        2.44518980980937        0.22750992814802
C           58.27684500306834        3.41089596385274        0.28785024172068
C           59.54732035059386        2.75835134488263        0.14958342797231
N           59.34955289028578        1.40934728253611        0.01767469801568
C           60.78520935951386        3.40512313759592        0.17054561013545
C           60.77846003359178        4.88694756937471        0.26090558396189
C           61.36100397967866        5.52874486419019        1.35421941881809
C           61.35614500994324        6.91730014922023        1.45579012633304
O           61.90973645853701        7.55317437998735        2.52118333962173
C           60.77071807964296        7.68475610587059        0.44362904753956
O           60.75517793887596        9.04143374958135        0.51064533899507
C           60.19462731331462        7.03458466523913       -0.65093759204869
O           59.64314415311095        7.84500532743719       -1.60982446507577
C           60.18772848530573        5.65010215741532       -0.74779527866264
C           62.02775099898921        2.76991227323177        0.11576768746514
C           63.29471579243727        3.44248102635295        0.07314706808278
C           64.25365004268905        2.48266045849930        0.02431044752981
N           62.23425164290205        1.41613035311636        0.07834364946190
C           63.57902603876086        1.22001582290016        0.02634389148961
C           64.23108308770249       -0.02631494989633       -0.01456874978947
C           63.58637037799021       -1.27527280945341       -0.07310084247322
C           64.26738938394854       -2.53482532156130       -0.06668025820614
C           63.31539453412958       -3.49861690326831       -0.15044042492737
C           62.04606274941067       -2.83179611671892       -0.21602894516312
N           62.24402055602039       -1.47766390123451       -0.15807172295164
C           60.80893707124302       -3.47290706635439       -0.30614145938600
C           60.81426819960049       -4.95397840500569       -0.42207796105250
C           61.42420946418714       -5.56445263934299       -1.51852617716494
C           61.41471679854372       -6.94957569554949       -1.63501789906916
O           61.98822218631586       -7.55525351087202       -2.70144006156344
C           60.80061043003545       -7.72485387581455       -0.64944946426894
O           60.81674305849761       -9.10494731422711       -0.79988657520660
C           60.22543063640166       -7.11800575134935        0.46540443736155
O           59.65701874270749       -7.87427778082320        1.44745077145422
C           60.21578360117079       -5.73154335007272        0.56967028236983
C           59.56666561977286       -2.83511516355604       -0.29349488943572
C           58.30097127141618       -3.49462827306092       -0.44466010618219
C           57.34166813773555       -2.53713702972239       -0.36998987839805
C           58.01481015142934       -1.28714002728410       -0.18491650425805
N           59.35938655116323       -1.48919320628150       -0.14652844679808
H           56.25431154815081        2.55783013126572        0.29822653180223
H           58.13493338259370        4.47007593882577        0.42962416018546
H           61.80681494393425        4.94279064324773        2.15010926299036
H           62.27772141877201        6.92081311832149        3.15219563804316
H           60.30790477038712        9.37889456135746       -0.28214045614175
H           59.26858449451248        7.32102104861315       -2.32970587824725
H           59.74463333703957        5.16974114736639       -1.61224322175025
H           63.43006194722071        4.51191005742858        0.06635907668735
H           65.32356337905529        2.60938227524981       -0.01931734352780
H           65.33655429142068       -2.65648610626064        0.00181080239133
H           63.45584220075708       -4.56731166892661       -0.15356251021677
H           61.88462461445368       -4.97017563402478       -2.29714670732830
H           61.88313082870950       -8.51611068905701       -2.59887697605500
H           59.95055584505934       -9.48175773127878       -0.59715593817721
H           59.95582741198283       -8.79211598370537        1.37661248092079
H           59.76578982941862       -5.26984823688667        1.43897766219438
H           58.16682850614618       -4.55282897370873       -0.60015839775498
H           56.27247603316572       -2.65623406840181       -0.44276289747769
Cu          79.40698408231482       -0.00564309781526       -0.02554602853777
C           75.97246035077117       -0.01258424723094       -0.03396427079892
C           76.61856699017025        1.23192632136787        0.08331193671415
C           75.93803258842776        2.47963691453659        0.25326394497276
C           76.89169370295016        3.44411173741391        0.31428895288097
C           78.16128040506929        2.79029052951692        0.17424476781374
N           77.96195437580775        1.44136577148970        0.04268206761770
C           79.39986799016538        3.43582097023327        0.19087086815907
C           79.39523389591629        4.91774039904208        0.27616573522327
C           79.99029982043518        5.56372777436778        1.36032869513173
C           79.98941463672875        6.95275615801556        1.45510386621105
O           80.55610815308633        7.59261127436818        2.51117884792213
C           79.39455657844674        7.71662230896608        0.44571648462520
O           79.38343359807608        9.07356156279810        0.50585772480374
C           78.80443124765240        7.06233554820813       -0.63892295028625
O           78.24312815696729        7.86917831426191       -1.59496948838505
C           78.79438746785958        5.67747173600149       -0.72928443888906
C           80.64136037325797        2.79837648318473        0.13494092473043
C           81.90924754522067        3.46875837659761        0.08835720397859
C           82.86686217705365        2.50731116271796        0.04544422641347
N           80.84583307513040        1.44404547208181        0.10300891962050
C           82.19052338738597        1.24576312672832        0.05330196553238
C           82.84124422976650       -0.00149148581499        0.01916508369677
C           82.19496117015549       -1.24917589715035       -0.04444198087508
C           82.87415269013009       -2.50973158039390       -0.04328551193445
C           81.92082513551648       -3.47181045179855       -0.13156425345613
C           80.65242669376357       -2.80300630934741       -0.19306060229017
N           80.85216910853981       -1.44931170392742       -0.13070412541622
C           79.41441134312376       -3.44251865937018       -0.28142605592016
C           79.41832643107543       -4.92334180135398       -0.40370495467228
C           80.01610061734014       -5.52678428476684       -1.51053665558360
C           80.00642758181301       -6.91135049252132       -1.63504239360725
O           80.56868330742820       -7.51026186269428       -2.71103886253639
C           79.40401144703266       -7.69232583602525       -0.64700217743505
O           79.42117124693669       -9.07278058316218       -0.80115412637890
C           78.84094639389859       -7.09234137276921        0.47792652024041
O           78.28615032444843       -7.85628178038716        1.46087798014658
C           78.83126570230252       -5.70648147546429        0.59048885504798
C           78.17308252410874       -2.80357189188835       -0.26435801787255
C           76.90636421058477       -3.46203828170401       -0.41115951039460
C           75.94843203080769       -2.50309035378010       -0.33821242110138
C           76.62343407970107       -1.25343571651241       -0.15758861817791
N           77.96778595552544       -1.45703317772242       -0.11942733277097
H           74.86815819480745        2.59337275581076        0.32468602364970
H           76.75104374230241        4.50316608806262        0.45808464907504
H           80.44315274555055        4.98089123418485        2.15452561159364
H           80.93198749286228        6.96261226121022        3.13988978526214
H           78.92645502845269        9.40818267020158       -0.28260331335230
H           77.86082866766034        7.34282029520054       -2.30903475253291
H           78.34131671665436        5.19396338428778       -1.58678187501101
H           82.04648461609423        4.53786126109461        0.07508951734583
H           83.93688142770043        2.63266564665010        0.00084367718503
H           83.94324408764618       -2.63292699344432        0.02367552030647
H           82.05954482111656       -4.54071390082450       -0.14061978269425
H           80.46767824454066       -4.92731758175080       -2.29034755187560
H           80.47127150882019       -8.47211377167745       -2.60965421232094
H           78.54544930765550       -9.44751390317516       -0.63946211519645
H           78.57614556896218       -8.77535175250942        1.36864354301815
H           78.39070366623615       -5.24992068885817        1.46730685548740
H           76.77092207080869       -4.52069270586364       -0.56242017404915
H           74.87893882713989       -2.62090266393281       -0.40863812112607
