204
 energy: -377.148902751450 gnorm: 0.000421496292 xtb: 6.5.1 (b24c23e)
C           27.14088080133637       -0.07516937516005       -0.01004675232457
C           27.75312887735638       -1.31047289036342       -0.17687262532495
C           27.10567935067080       -2.57074366781387       -0.31063761607810
C           28.07080474504968       -3.52579969704207       -0.46281701748331
C           29.33912079730737       -2.87785425500184       -0.43735597331535
N           29.09686567190831       -1.54660294042329       -0.25310262124412
C           30.60409773666226       -3.46600718780808       -0.55110613364656
C           31.81941641386467       -2.78094298139779       -0.47614310475376
C           33.11599120849225       -3.40902099831433       -0.65846028068775
C           34.03650080633674       -2.43334313786763       -0.51612973418993
N           31.97368909534178       -1.44757618402521       -0.24927705571167
C           33.30115416429850       -1.21038575676028       -0.25722488929842
C           33.93786202968398        0.02926177769304       -0.04384838536674
C           33.29923105781293        1.26537085252298        0.17139882072138
C           33.94017798677967        2.50941128503948        0.41300130465800
C           32.97057444922512        3.46157902209276        0.56331247890849
C           31.70604765152172        2.82825687984601        0.40859943468608
C           30.44192543535410        3.42101976859084        0.49773879010279
C           30.40380603183434        4.88396256636373        0.73004983978413
C           30.97737688414958        5.76457655652626       -0.19125684016964
C           30.93211588768132        7.12933260561207        0.02586192996949
C           30.31797713418291        7.63990503373835        1.17109585887844
C           30.29591765187643        9.11001008762351        1.36004854293494
O           29.67822999299068        9.49746239843971        2.48630570384881
O           30.77826324438431        9.90205280881620        0.59087430803230
C           29.74744162759118        6.76503257369594        2.09626086540782
C           29.78914212989670        5.39988406566735        1.87421721178298
C           29.22535232501892        2.73886150746186        0.38504401354236
C           27.92048156026538        3.38178415659333        0.42140572397211
C           27.00718779451838        2.40048758993263        0.27997459725669
C           27.75271649293624        1.16123154236356        0.14657318220079
N           29.08533649876845        1.40474220113666        0.20472103152282
N           31.95669230330646        1.50083376904433        0.18180483869660
C           30.63529106478596       -4.93223283032961       -0.76800942201514
C           30.04252474694668       -5.49164478783467       -1.90297576835737
C           30.06464492869607       -6.86031667990971       -2.10658167415532
C           30.67711741078534       -7.69464976675266       -1.17097881607273
C           30.72158666962824       -9.16685630479730       -1.33917085811733
O           30.12583540815076       -9.59725707768785       -2.46175226383171
O           31.23465312906267       -9.92587495010109       -0.55675632052968
C           31.26979584877802       -7.14021293756320       -0.03480685733307
C           31.25155797830249       -5.77204563109481        0.16358752159486
H           26.05565665533290       -0.08709399215548       -0.00300991972186
H           26.03738368939402       -2.71503441138445       -0.28528015992800
H           27.92323139867466       -4.58774311435634       -0.57407357325424
H           29.81916133401549       -0.83805102630884       -0.17930418492975
H           33.27730364008902       -4.45160600387326       -0.87948409040052
H           35.11010052859992       -2.50601254241928       -0.58374381509521
H           35.00790870796479        2.64700166242781        0.46913178004022
H           33.11506528756175        4.50875936403066        0.77320470715182
H           31.44122656814097        5.37186756774659       -1.08901105953450
H           31.36876175642058        7.81837052959329       -0.68876772575047
H           29.70652248041328       10.46681056863605        2.53443431061484
H           29.27335425064476        7.15646398422357        2.98854957833047
H           29.35685614289310        4.71974130739204        2.59940558196306
H           27.75147974463465        4.44135574721913        0.52628688572752
H           25.93147954468051        2.47701172034490        0.25565252861580
H           31.23685805846441        0.79778245144930        0.05067899528375
H           29.57769880239255       -4.84290321129263       -2.63692616405516
H           29.60765860887292       -7.28560442239191       -2.99228355199201
H           30.19849179468494      -10.56488146681829       -2.49640287085093
H           31.74061348674031       -7.79817445098091        0.68733567120494
H           31.70069194987731       -5.34463854862335        1.05279065931906
C           71.10222606873408        0.08003492923473        0.02267066158407
C           70.48368305281986        1.25726758613192        0.42281627542963
C           71.12458707277543        2.44930204010719        0.86290523731530
C           70.15440903738438        3.36729496876905        1.15059803537218
C           68.88938101929864        2.76883212635668        0.88467204830738
N           69.13863355893191        1.49534050592617        0.45926239074200
C           67.62126914008147        3.34037710916035        1.04008013266605
C           66.40967950649873        2.68708148571534        0.80041380552450
C           65.11016146257252        3.32634397980744        0.90679224013627
C           64.19457836127846        2.38337835165749        0.60336494511120
N           66.26214425582818        1.38880820107975        0.41877242441100
C           64.93584531374081        1.17335402735926        0.30392906817778
C           64.30502483776735       -0.03984706870102       -0.03959716835750
C           64.95000134810023       -1.24381429959364       -0.38080806127669
C           64.31630810577416       -2.47342121897267       -0.70201395351306
C           65.29113156681751       -3.38817858769273       -0.98923071563355
C           66.55160937486404       -2.74112274341392       -0.86050651886889
C           67.81877094423724       -3.30259648555143       -1.05174358213156
C           67.86470511635365       -4.71646262242689       -1.49268708760913
C           67.28433024091328       -5.10043282505583       -2.70474111387518
C           67.33899348061681       -6.41855856098575       -3.11854469593852
C           67.96940967455566       -7.37956722383275       -2.32581167798731
C           68.00207116039500       -8.77950352620725       -2.81220034771823
O           68.63548525613361       -9.62181666135597       -1.98193690490502
O           67.51526290155329       -9.15057799848265       -3.84998838132039
C           68.54603777320028       -7.00269630804863       -1.11242509540903
C           68.49492119499727       -5.68193420786160       -0.70289569449025
C           69.03173274101691       -2.63160100852730       -0.86052205549368
C           70.33931321737441       -3.21461379272498       -1.12087948164116
C           71.24768588954770       -2.26597558766242       -0.81761698798668
C           70.49637885841368       -1.10130090680875       -0.38354437875144
N           69.16521811078249       -1.35457959378224       -0.43216390903003
N           66.29360916345081       -1.45030566952408       -0.48184962471995
C           67.58136457850895        4.75041247897032        1.49580873068825
C           68.17465410410851        5.75830525765415        0.73120329497941
C           68.14406156247678        7.07489645833692        1.15650794814020
C           67.52213357366196        7.40427634974489        2.36120483185492
C           67.46828878620462        8.79775043811903        2.86408868366122
O           68.06722145298455        9.68429950819810        2.05438043352082
O           66.94495646326558        9.12829946932720        3.89768590561369
C           66.92859093124613        6.40038409430007        3.12896926300337
C           66.95561950320153        5.08653725101229        2.69937883467136
H           72.18740413263282        0.09422462772958        0.03140833867750
H           72.19220024267651        2.57306183715602        0.95007356833063
H           70.29652542047945        4.36882827433559        1.52288911724708
H           68.42008410731128        0.82380231577300        0.21042100329560
H           64.94364575573789        4.35969262413332        1.16427567125832
H           63.12076046194792        2.47426726357028        0.57032769746979
H           63.24965320687505       -2.62963397902861       -0.70483091185823
H           65.15296960673717       -4.42300532441911       -1.25682260209978
H           66.80804664157893       -4.35354611939803       -3.32977245149786
H           66.89758797578595       -6.72147416609965       -4.06169100903755
H           68.61364348853090      -10.51118807195766       -2.37093120059334
H           69.03252705530288       -7.74589014491197       -0.49181557038934
H           68.93231777395761       -5.39170196314825        0.24568860627716
H           70.51332911356840       -4.20955381328050       -1.49778482474841
H           72.32343708882458       -2.31620012330633       -0.87951790316439
H           67.00928195923247       -0.75487977447196       -0.29792588903059
H           68.64648893699692        5.50516556032013       -0.21161732850854
H           68.60167543240667        7.85127033828610        0.55483346637705
H           67.98776956980409       10.56639960707785        2.45234576084924
H           66.45031082316646        6.66713677187838        4.06501351600593
H           66.50596964500876        4.30671257172538        3.30335984840898
C           35.34395736580288        0.04672624164828       -0.04103883681556
C           36.56859373248145        0.06018033875478       -0.03159825669942
C           37.91154575392386        0.07177077861118       -0.01965871828891
C           39.14226315751221        0.08191411322826       -0.00507921110710
C           40.48039538466676        0.08946605750662        0.01032493354798
C           41.71124930248658        0.09605947055562        0.02429097396013
C           43.05398451488800        0.09995210476538        0.04036546282106
C           44.27881668403284        0.09946419639505        0.05827475681307
C           53.96432579201744       -0.01231273388346        0.05520212585481
C           55.18898708826030       -0.03627110765371        0.04124583256415
C           56.53161004742625       -0.05583062532919        0.02378285195555
C           57.76233931951706       -0.06797732135401        0.00502527301273
C           59.10049119679422       -0.07764011644443       -0.01122988810745
C           60.33124888430618       -0.08040826620036       -0.02649598341944
C           61.67431693760654       -0.07618591596888       -0.03683900234684
C           62.89897229667547       -0.06192535688095       -0.04190856815715
C           45.68384032944110        0.09665639487853        0.07097657732031
C           46.32213005803297        1.02754954183595       -0.77108061188721
C           45.68630375692794        1.94933126527539       -1.64238758117358
C           46.66074534469694        2.68045663776904       -2.26467684541557
C           47.92103346861293        2.23046022717644       -1.78416269567853
N           47.66557577694286        1.22447095105924       -0.89148102209765
C           49.18634917247967        2.69902982545622       -2.15872607462415
C           50.40845695256919        2.19739164847320       -1.70686939147675
C           51.69760758490963        2.75362713144558       -2.07868120949665
C           52.63108398115407        2.00301100674865       -1.45836217643347
N           50.57967909996524        1.14592596885018       -0.85975096454706
C           51.91096128459073        0.99786758868596       -0.70186459392490
C           52.55946843084073        0.01132468295127        0.06788995381445
C           51.92054614990137       -0.96203940959174        0.86002482591518
C           52.55473050041292       -1.97396802639617        1.62603528743605
C           51.58020748258112       -2.68946942556799        2.26632896325745
C           50.32182084240510       -2.12879886802607        1.91477216663925
C           49.05736150035663       -2.55302529731030        2.34155461609930
C           49.03421243677580       -3.67169869118072        3.31538790261972
C           48.41858676448964       -4.88265046501803        2.98804418548365
C           48.40091439857579       -5.92437256319962        3.89703252701398
C           48.99329578653879       -5.77322910328456        5.15225484149618
C           48.94614991965632       -6.91764125361423        6.09370427561290
O           49.54138381679279       -6.66962498235846        7.27020001846324
O           48.42992093233323       -7.97839473336956        5.84959877863016
C           49.60681501737786       -4.56521807527901        5.48499944592846
C           49.62885783271386       -3.52603536050023        4.57126790935185
C           47.83561706639473       -2.01646779998788        1.93120112420434
C           46.54797749181902       -2.45457997198826        2.44071056227487
C           45.61426478778159       -1.71887408312352        1.80319638998977
C           46.33303003403917       -0.82556988645056        0.91625083415906
N           47.66369935584436       -1.01782275042309        1.02235608564077
N           50.57793128961273       -1.09522030109872        1.05441273340380
C           49.21062611181164        3.82574692554421       -3.12303578802125
C           48.63346056240382        5.05439295717670       -2.79134113142343
C           48.65829873145461        6.10298718769771       -3.69229920102458
C           49.25511977838976        5.94111513097877       -4.94400768388476
C           49.25278907823564        7.09329031988386       -5.87708385449208
O           49.85290970422572        6.83619630231118       -7.04901787890939
O           48.76498459469811        8.16694449020190       -5.63057693746154
C           49.83051631913807        4.71557654250054       -5.28102682760990
C           49.80939097662696        3.66919396870360       -4.37566113956619
H           44.61958181080286        2.03231788115974       -1.77377648924607
H           46.52094665080698        3.45655700493661       -2.99921816588439
H           48.37837797951244        0.69823924577382       -0.39730945649707
H           51.84609575073939        3.61006102563344       -2.71607874925595
H           53.70419677763835        2.10360899969939       -1.48656283834200
H           53.62034691094074       -2.13023942295354        1.67202954647811
H           51.71833854127104       -3.53740584024463        2.91703115029200
H           47.96816681990802       -5.00546656508279        2.00973135977436
H           47.92980631718682       -6.86881625919896        3.64770971942740
H           49.46634717782150       -7.46239415438068        7.82582005664127
H           50.06412938019603       -4.44190182474088        6.45957468574615
H           50.09477575494391       -2.58314817780411        4.83481765066322
H           46.40084877145834       -3.21253362835989        3.19278565102446
H           44.54199488111144       -1.75077481931339        1.91131023582960
H           49.86609498598812       -0.51575460422023        0.62229530105212
H           48.18099615085064        5.18648383506470       -1.81504415887326
H           48.21771948407746        7.06104069598533       -3.43904942106149
H           49.80925330114960        7.63538220497917       -7.59875654869050
H           50.29180532815383        4.58448318072966       -6.25269156518556
H           50.24572760824161        2.71313996155979       -4.64188933394478
