225
 energy: -348.016653164452 gnorm: 0.000354633500 xtb: 6.5.1 (b24c23e)
Co          35.73086943462378        0.33219331386852       -0.54418475181952
C           32.80166770175534        1.15012287282313       -1.92629763110578
C           33.30179439998845        1.96928554750366       -0.93357284510206
C           32.61378986564011        3.11360841846544       -0.41595898626092
C           33.30248174091851        3.52006202733087        0.67817302276973
C           34.44681171153769        2.66412629192324        0.78873251416654
N           34.42823271928582        1.71227488597076       -0.19454668658602
C           35.48643576512796        2.86603858676360        1.68817673893366
C           35.34523791807190        3.91879130476690        2.73114121637558
C           35.71951798936983        5.23851975917675        2.45964413043218
C           36.27413354447544        5.60526202651816        1.10877402871462
C           35.57559702676561        6.20434428120920        3.44868694954251
C           35.06529939540349        5.87686778698273        4.70090496058876
C           34.93285994673794        6.93092853325277        5.76673003445616
C           34.69902554635816        4.56032722330847        4.95985116790361
C           34.83369854135533        3.57774459598212        3.98598716088574
C           34.43589794270960        2.15391765585144        4.26966627274731
C           36.69805136824511        2.20777421713061        1.55535700223297
C           37.89588342325521        2.59258425320994        2.23872773669815
C           38.90952895156849        1.89379515803356        1.67027626305736
N           36.97254475740832        1.22420359900881        0.63343134812703
C           38.32111770931309        1.03336096865622        0.69313373301676
C           39.02969081947446        0.03975954892472        0.00271609459691
C           38.35629719513157       -1.01793360953180       -0.62487506929671
C           38.98142099092728       -2.25176866052233       -0.98404556770881
C           37.99172946924734       -3.09506256286455       -1.36927370515685
C           36.77092844534616       -2.34962854403550       -1.31116674243346
N           37.00905895967946       -1.08569137430997       -0.82394858904763
C           35.56556368098776       -2.79571047345612       -1.82878996686055
C           35.46163119983009       -4.20125112035405       -2.30802748014582
C           35.81601384382642       -4.53002093489183       -3.62008125329173
C           36.30565792109118       -3.46217306075333       -4.56185956860891
C           35.71512056550829       -5.85049279871983       -4.04225980647105
C           35.26839677217671       -6.84616345714481       -3.17949405309669
C           35.14577135828416       -8.26808007606060       -3.65663612661859
C           34.91777911110193       -6.50659046400472       -1.87692955593180
C           35.01115288434902       -5.19300531633169       -1.43256985587844
C           34.63633679460213       -4.82993697611422       -0.02059431029316
C           34.49811246768597       -1.93071508687907       -2.03395122053201
C           33.35282025598375       -2.24548587773259       -2.83636939609569
C           32.64038020712025       -1.10015507424465       -2.96789091111587
C           33.31514614694111       -0.10419417045446       -2.19118499020260
N           34.45338279922080       -0.62345717278237       -1.62984154455299
H           31.89264530511692        1.45196792145241       -2.43349522883725
H           31.70336392087814        3.51831442112953       -0.82888020694649
H           33.08309870150560        4.33752924722491        1.34617408933841
H           35.56402373422929        5.34518966846788        0.32175408673560
H           37.19910980852937        5.05785960126013        0.91746375144200
H           36.48343239518033        6.67300628594459        1.05188392294867
H           35.86426707185377        7.22906739201195        3.23860795660118
H           34.14812296858176        6.66984426278488        6.47699922669278
H           35.87240075717145        7.02382503925258        6.31650709982442
H           34.70183116581698        7.90110660741049        5.32593363787010
H           34.30078863998847        4.29490261286777        5.93370757236488
H           35.29457072644193        1.49049946314646        4.14992408566916
H           34.05301593253126        2.05076369404022        5.28452411520292
H           33.66426023375720        1.82939987724612        3.56900383738020
H           37.94421932466523        3.32589231980696        3.02746126941513
H           39.95961123782421        1.91991882934517        1.91120521395113
H           40.03752780400795       -2.45078103212894       -0.90274666706659
H           38.07015211278062       -4.12058092726435       -1.69229238804004
H           35.55321716103951       -2.67940728477471       -4.67392332359614
H           36.52298733406462       -3.88066636137726       -5.54409038413988
H           37.21345505024102       -2.99853435725278       -4.17111435571685
H           35.99160591276431       -6.10694384803334       -5.05975996307917
H           35.88905688031448       -8.48574900868467       -4.42402900712152
H           35.27524431784136       -8.96793657896241       -2.83078225484556
H           34.15523819912523       -8.43099948659478       -4.08788196244228
H           34.56886780189390       -7.27640777781757       -1.19643065332705
H           33.84336615480925       -4.07974101104616       -0.02002768770130
H           35.49624062975381       -4.40578235047755        0.50142232186631
H           34.29088357754849       -5.70525939849007        0.52861953302130
H           33.14960470172402       -3.21689786990319       -3.25788262684430
H           31.72253585786134       -0.93499312815383       -3.50961983475803
Co          57.20688394418274        0.27366740755982       -0.52659695500154
C           60.22496544638446        1.15819822024664       -1.68444766423263
C           59.67760954198716       -0.02493496718900       -2.13894572910455
C           60.34833051768512       -0.93193618648451       -3.02085440180207
C           59.57232719540432       -2.03948083397729       -3.10417215739541
C           58.39735272589609       -1.78083240328750       -2.32463185131417
N           58.48501911279174       -0.55519619905324       -1.71920255123253
C           57.27289099300463       -2.59492170229773       -2.32769190436509
C           57.33225562908095       -3.90883173370517       -3.02511886214984
C           57.03960624205761       -4.00331741859230       -4.38941817829039
C           56.66356880638512       -2.77129331772872       -5.16894804065307
C           57.10039994505836       -5.24288370750334       -5.01429611707998
C           57.44854487060143       -6.38767198170788       -4.30314212165435
C           57.49174196994900       -7.72262224491057       -4.99650752242639
C           57.73815149739169       -6.28089853135937       -2.94762365410776
C           57.68339913675891       -5.05112437982381       -2.30129455151490
C           57.99921759252933       -4.93923410015618       -0.83370729995799
C           56.06484885768207       -2.16709821697868       -1.80084705433549
C           54.81174550663546       -2.81602287895711       -2.04267100425161
C           53.85043461023369       -2.01507753460406       -1.52055106251654
N           55.87172594697851       -1.00785712149897       -1.08729206299755
C           54.52291007192794       -0.91501258149878       -0.90229915585192
C           53.88325099760370        0.00362155202230       -0.06167926586683
C           54.61313647281045        0.83369315234490        0.79728173618326
C           54.03719948237224        1.54089445545446        1.89740368834532
C           55.06027121857589        2.13659298819126        2.55780779968731
C           56.25182633533601        1.84490621618409        1.81868313252623
N           55.96454949753586        1.01473534251934        0.75969940364965
C           57.46942454658748        2.46417256636640        2.04614891932850
C           57.61301338037844        3.36279963086610        3.22446772180573
C           57.26210351409207        4.71320476101199        3.12940484788014
C           56.73599220572076        5.26803645829091        1.83237154146806
C           57.40066662019338        5.53261840854574        4.24315611734393
C           57.88106475373984        5.02847530274393        5.44796020218247
C           58.03972801372421        5.93514715236602        6.63853166909314
C           58.22793537928421        3.68431557175354        5.52975013557838
C           58.09798212495595        2.84592871955933        4.42847757399588
C           58.47012649944663        1.39027331006564        4.52105597510520
C           58.51828735249049        2.36774150727622        1.14100155775990
C           59.68503366898997        3.19956694903583        1.17471041974161
C           60.40260108462047        2.91241720891634        0.06194660444822
C           59.70468406175000        1.86279998796816       -0.61789824874072
N           58.54366707357392        1.55065451864191        0.04300386553136
H           61.16771240898442        1.48553470585012       -2.10715021906588
H           61.30404260230881       -0.74100691563511       -3.48278664821089
H           59.75012115490766       -2.94622096024594       -3.65988551338838
H           57.46864042037412       -2.03521532512934       -5.12757584974211
H           55.76915818935183       -2.31127617881709       -4.74468250090944
H           56.46821579876094       -3.01656816694809       -6.21243278825600
H           56.87377751071148       -5.31839593125892       -6.07284806581907
H           58.02279074506541       -8.45909431072443       -4.39352315856057
H           56.47637802981540       -8.08698580272990       -5.16804061690204
H           57.98653983494020       -7.63751147410652       -5.96489891838175
H           58.01150918471397       -7.16709782881226       -2.38433801600807
H           57.14544465180239       -4.52639042028898       -0.29306663395668
H           58.24291912859535       -5.91375409095777       -0.41171219671393
H           58.84677252208359       -4.26869064009619       -0.67927138374236
H           54.69633172480205       -3.75100973613421       -2.56686061743972
H           52.78277572719841       -2.16509111194313       -1.51060291118889
H           52.98652528042363        1.54854800417264        2.13841664105007
H           55.02352672423896        2.74582013682544        3.44645767472823
H           57.46109710934617        5.11512207609833        1.03095968430334
H           56.53224732150394        6.33476379083850        1.92036123315485
H           55.81311877001965        4.75852896267873        1.54864741846372
H           57.12779362014629        6.58045259343392        4.17146297248827
H           57.22599954785843        6.65978360638130        6.68370046108855
H           58.05390820176447        5.36232620628757        7.56585023460900
H           58.97960867588625        6.48694784839583        6.56345479228071
H           58.60296112305920        3.28175069929236        6.46502243722783
H           59.24588373343251        1.15074607162394        3.79133462414195
H           57.60309134576193        0.76380901115273        4.30283522606928
H           58.83788648435202        1.14403067815575        5.51666924312936
H           59.90057417619427        3.91967082103894        1.94775111525011
H           61.33765804467107        3.33754639257753       -0.26685251397570
C           40.43046216986875        0.03580299583768        0.04305132233750
C           41.64945452407240        0.06138979686259        0.02827890783093
C           51.26367746522197        0.01603231717444        0.02269496659151
C           52.48158717120607        0.00385793842317        0.00394081983778
Co          46.45694803336321        0.07145125817216        0.00148427970705
C           43.05146469492466        0.07189016601887        0.01368563956817
C           43.73960549676877        1.00067682757462        0.80393548735574
C           43.09617515608871        1.98758126244019        1.61155179172671
C           44.05763994546972        2.54363276045630        2.38902521750636
C           45.28497752251100        1.89094637132241        2.05058827504984
N           45.08549332414917        0.98679383608008        1.03303855236395
C           46.46132522718184        2.03579249575511        2.76813293000748
C           46.46004261053098        2.89440738869346        3.98435996736502
C           46.90209209155509        4.21809546427543        3.90511379795947
C           47.37987591874315        4.77535543729334        2.59074570406818
C           46.89378809674815        5.01008888495695        5.04746775069521
C           46.45355448239140        4.50343806924670        6.26566013258033
C           46.46810139734777        5.36289711585150        7.50080923834475
C           46.01763220630260        3.18393613829350        6.33267344358980
C           46.01468728378543        2.37405730996268        5.20330817271465
C           45.53607907270187        0.94901030309472        5.28517240868915
C           47.63813393213900        1.40688665017556        2.39375889179288
C           48.86875081194392        1.52098949917173        3.11498843868150
C           49.82771234189815        0.96282296879347        2.33596539040357
N           47.83235306203995        0.73239083020376        1.21105992355674
C           49.17829595498662        0.51025334243167        1.14665409517427
C           49.86032227815094        0.02787753761823        0.02529912339045
C           49.18016800958939       -0.43563030621752       -1.10585722099199
C           49.83339755062412       -0.88812811880015       -2.29349208994595
C           48.86968882279059       -1.40757240282768       -3.09334672049377
C           47.63347700467516       -1.27385469898012       -2.38499018444007
N           47.83073702947387       -0.62571058056330       -1.18812033483207
C           46.44598054299800       -1.86663959998275       -2.78346453057498
C           46.43629836310335       -2.69582019177519       -4.01976581276516
C           45.98605996893544       -2.14350137292903       -5.22283978084325
C           45.50749186930450       -0.71671671995794       -5.26581591486298
C           45.98486507506411       -2.92309362013931       -6.37332338067021
C           46.42127197089283       -4.24369211720294       -6.34306222512604
C           46.43426094951934       -5.06945950631111       -7.60097413432243
C           46.86441315287721       -4.78303091288171       -5.13998076698385
C           46.87684174993273       -4.02181900481541       -3.97695170455869
C           47.35800795348987       -4.61550519381183       -2.67975921544087
C           45.26752191849140       -1.71464129105383       -2.07058937522474
C           44.03271863305940       -2.34231174961454       -2.42849026294677
C           43.07756733704113       -1.79883918763504       -1.63477870308942
C           43.73204677926959       -0.84322087603368       -0.79846358436423
N           45.07798458513922       -0.83553677763224       -1.02975584218919
H           42.04219818169724        2.21019942650331        1.58353984338540
H           43.95915118476786        3.31648490006642        3.13409103155554
H           48.29669821304856        4.27130943783593        2.27835541447747
H           47.58115156989929        5.84313982836867        2.67129793751064
H           46.63015069332035        4.61581417265463        1.81395746341434
H           47.23407569014069        6.03856221620987        4.98507070112411
H           47.40529234676080        5.21791792779120        8.04329595947555
H           45.64710203737332        5.09774592213736        8.16756350304049
H           46.38568517283941        6.41855976835366        7.24146859120691
H           45.67303136303288        2.78013066707080        7.27908317174395
H           44.62048824639386        0.82474987930063        4.70337078801510
H           46.28626770060715        0.27039158042232        4.87579114576652
H           45.33203622587223        0.66621762222288        6.31746780032704
H           48.97075661207161        1.98123903498441        4.08448426387431
H           50.88340131026264        0.86694486234847        2.53172307133914
H           50.89366915480850       -0.81719667382819       -2.47527542512149
H           48.97162910359464       -1.85267541745749       -4.06989694615811
H           44.58664838597597       -0.61045067005353       -4.68872860368130
H           45.31193735925248       -0.40313341326147       -6.29081154604440
H           46.25344322857210       -0.05038955705605       -4.82951452877276
H           45.63719172496821       -2.49409604225970       -7.30743102564093
H           46.33220140390141       -6.13028634794934       -7.37131915461453
H           47.37945158737111       -4.92545016900344       -8.12970542420611
H           45.62474404881516       -4.77285024646539       -8.26844148829786
H           47.20408422609101       -5.81304998054857       -5.10615389867400
H           47.53227920675208       -5.68607066229073       -2.78338440379979
H           46.62318729781484       -4.45272479220112       -1.88962945636186
H           48.29134883595285       -4.14031999936093       -2.37085311643992
H           43.92530492673726       -3.09142124831018       -3.19621861381614
H           42.01964148560685       -2.00313768469076       -1.62130657506388
