126
 energy: -247.968414884817 gnorm: 0.000471168654 xtb: 6.5.1 (b24c23e)
Fe          17.28095981384827        0.06926167194692       -0.02261270840760
C           13.88833928606802        0.10731088581032        0.06301763243600
C           14.54782669179925        1.31266835454506       -0.06802773038916
C           13.87960613584366        2.57285138566211       -0.19270181705145
C           14.84272418079292        3.52422776969695       -0.19503550295963
C           16.09957132345486        2.84325785036491       -0.07376993025012
N           15.90536850732870        1.48957492864474       -0.01539886785519
C           17.31990233515947        3.48789364796807        0.09848082088194
C           17.33762722923698        4.97195538288300        0.12578785644115
C           17.00533525305823        5.69443451513632       -1.01972219139058
C           17.03061994553761        7.08418090485654       -0.99729224832421
O           16.71960012076733        7.79744309276310       -2.10671786154524
C           17.37957912321543        7.75430251901146        0.17649757081343
O           17.39279159691290        9.12424534671342        0.16946515317365
C           17.70488879048356        7.03133285966079        1.32148417102911
O           18.03162486544066        7.75863346422203        2.43522502745007
C           17.68964474708588        5.64206855447437        1.29987957972376
C           18.52030587767455        2.80743238561414        0.25051200766812
C           19.78632248505665        3.45274122679575        0.42960965616111
C           20.72783348836291        2.47923904982689        0.40590786682172
N           18.69183656916379        1.44706890717832        0.14312033981564
C           20.04027149277296        1.24466295450017        0.19667691192833
C           20.69794105681780        0.02429573606341       -0.00751688851077
C           20.00816100612679       -1.17926503001602       -0.20376856892728
C           20.65550902516098       -2.42894046248584       -0.45492707088619
C           19.68742973271677       -3.37665742829274       -0.46282707278014
C           18.44855358826599       -2.69935023351589       -0.22617065681653
N           18.65904412680658       -1.34702959722357       -0.09939679307947
C           17.23468327446889       -3.34803061251135       -0.06942010054393
C           17.21450087893786       -4.83697669590816       -0.11635184106516
C           17.36857775613732       -5.57070238160697        1.05717618108785
C           17.34893618637409       -6.96053648976535        1.01255861430995
O           17.49780941540044       -7.68950134950987        2.14544145220800
C           17.17518589595680       -7.61401044566544       -0.20825023440773
O           17.16057079502944       -8.98488139399583       -0.22070450999500
C           17.02152309265347       -6.87659679182500       -1.37908292185066
O           16.85561490373368       -7.58877841488819       -2.53777608435104
C           17.04027427337670       -5.48717992465158       -1.33834745764447
C           16.03490964276398       -2.67733556770662        0.11984887683056
C           14.76951866949156       -3.33326280950120        0.27692924193946
C           13.82770737111452       -2.36120377316504        0.30878144620724
C           14.52022642995221       -1.11433013926582        0.17255468158867
N           15.87255378016271       -1.31837526376063        0.09379857831131
H           12.80430834383205        0.12137359426835        0.07694676015435
H           12.81005364331993        2.69406289618156       -0.25882949159818
H           14.72435561095020        4.59380133765396       -0.25628317368675
H           16.74563095861753        5.18383492357867       -1.93798903930885
H           16.79608910573620        8.74222369453464       -1.89385039694556
H           17.65381911510434        9.42537467439141        1.05435787986386
H           18.24713218613699        7.17643291881401        3.17571182306199
H           17.93208971462459        5.08498677292027        2.19712144425615
H           19.92995381475715        4.51487053750559        0.54245999711306
H           21.79525793957454        2.57781260600612        0.51210204357807
H           21.71518355595332       -2.55183139009567       -0.60519213263542
H           19.78724273047535       -4.43952998351261       -0.61315326651093
H           17.50442635890001       -5.07045303460136        2.00714710144446
H           17.45440750268716       -8.63097479268406        1.90973660437987
H           17.03190755156667       -9.27360164100944       -1.13820140836119
H           16.76035536525409       -6.99607474467969       -3.29487681395437
H           16.91975469822430       -4.91588717933914       -2.25111590571440
H           14.63829549293273       -4.40144533064071        0.34319770639005
H           12.75800960207497       -2.45876726444429        0.40575247093045
Fe          28.14456353793121       -0.06625219877918       -0.03031803009808
C           31.53718425163059       -0.11376203589164        0.05044032713978
C           30.87769617664177       -1.29649881087453       -0.21637890900887
C           31.54591602434644       -2.53442957591817       -0.48308721112338
C           30.58279785847462       -3.47941095419599       -0.59323505874961
C           29.32595124894994       -2.81657432504702       -0.39556270993464
N           29.52015451630762       -1.47823072299748       -0.18413748571150
C           28.10562012487732       -3.47657935027684       -0.29748640732510
C           28.08789466933783       -4.95417226060719       -0.43856810369625
C           28.42018663275442       -5.54215616221098       -1.65858631265068
C           28.39490207031047       -6.92548875524961       -1.79382347780755
O           28.70592209989813       -7.50840510706982       -2.97694500574384
C           28.04594279870675       -7.72433646001010       -0.70355390013616
O           28.03273035859711       -9.08465365387856       -0.86581888432117
C           27.72063297064876       -7.13580585826454        0.51599975497679
O           27.39389676248307       -7.98465774676120        1.54012631514868
C           27.73587702582193       -5.75304581031607        0.65200235317531
C           26.90521684596192       -2.81773487274159       -0.06930736195733
C           25.63919990464995       -3.47918459920275        0.03549196023807
C           24.69768905886387       -2.50926935352053        0.12228429064268
N           26.73368642332825       -1.45396563465742       -0.02181637060547
C           25.38525149475127       -1.25893410430359        0.05433690112664
C           24.72758216146286       -0.02328675816861       -0.01021694557592
C           25.41736225395122        1.19476215081669       -0.06878382434895
C           24.77001421117063        2.46485210027067       -0.17667581166456
C           25.73809355675547        3.40735686354974       -0.07710423550726
C           26.97696982658683        2.70759018829069        0.08125475054213
N           26.76647930186130        1.34961529509872        0.05392880077362
C           28.19084082604693        3.33432289028309        0.31051774051378
C           28.21102359954273        4.81899321878844        0.43265289319764
C           28.05694519217215        5.41497814778966        1.68178171590097
C           28.07658642795344        6.80091305103905        1.79498103333597
O           27.92771189903850        7.39677482907903        3.00318698990965
C           28.25033751873640        7.58854736787838        0.65610685981873
O           28.26495182290301        8.95199577370125        0.79911278656740
C           28.40400176818827        6.98859271185520       -0.59076201961313
O           28.56991039266033        7.82751582308163       -1.66126674342632
C           28.38525134737976        5.60351240199156       -0.70777108308388
C           29.39061476838987        2.64649712642341        0.42254254597779
C           30.65600657299256        3.28039300330228        0.65295246844872
C           31.59781782215891        2.31098838619419        0.57441527802298
C           30.90529783863756        1.08759072490567        0.29774120275046
N           29.55297029850450        1.29924745122167        0.24262494605395
H           32.62121526902231       -0.12931215193709        0.06267942466300
H           32.61546825614323       -2.64736439397250       -0.56253132645732
H           30.70116611617067       -4.53514993642381       -0.77531778104038
H           28.67989087831735       -4.93076502694089       -2.51306092036933
H           28.62943327625066       -8.47122486419341       -2.87253670401833
H           27.77170280846171       -9.48414165291110       -0.02076070506664
H           27.17838928905110       -7.49014052448934        2.34183126250626
H           27.49343215034790       -5.30125311255722        1.60660513516693
H           25.49556833379134       -4.54726021297695        0.02722712273056
H           23.63026447662499       -2.61924404080914        0.21662030008874
H           23.71033956148545        2.60398321227076       -0.31204194721569
H           25.63828051927866        4.48041873687836       -0.10598713077314
H           27.92109577979036        4.81027899347484        2.56893045162297
H           27.97111368179247        8.35889697503253        2.87571144946193
H           28.39361554806333        9.34284822771112       -0.07974679733657
H           28.66517045156342        7.32444447621100       -2.48066790246485
H           28.50577191382266        5.13935801646832       -1.67940995373933
H           30.78723012503297        4.33418020806530        0.83986916468063
H           32.66751602102969        2.39693201224121        0.68181540104629
C           22.10316887494193        0.00804604925943       -0.01683837620213
C           23.32235435542976       -0.00608456895159       -0.01764099970417
