197
 energy: -374.684647287529 gnorm: 0.000468088223 xtb: 6.5.1 (b24c23e)
Fe          29.19929950568013        0.06362332278945       -0.23198521173546
C           25.81633238115820        0.10098534708267       -0.12493873749926
C           26.47475375197458        1.31357691436947       -0.14475284512309
C           25.81134364819444        2.58245587100925       -0.16336733879856
C           26.77676078637167        3.52698127822109       -0.06957874166238
C           28.02853042534199        2.83229570833495        0.02643207717131
N           27.83274062452961        1.48137270846184       -0.07180084917523
C           29.25075756741579        3.45056743481815        0.26928268417108
C           29.28011111559180        4.91927054762390        0.46494307864405
C           28.56768645317845        5.51422249188777        1.50222365661880
C           28.60007091106246        6.89688622297103        1.67951513868807
C           27.82050707914236        7.47237486625553        2.80455492739195
O           27.92571390872256        8.80553147457228        2.90226570061482
O           27.14982237681926        6.82583072761427        3.56773243292047
C           29.34646917321173        7.69603345924447        0.81367775606179
C           30.05596466539460        7.10592102371642       -0.22050743234925
C           30.02652072202580        5.72960741326041       -0.39430760320959
C           30.44667636594647        2.74951046038899        0.34149481471542
C           31.70786315169735        3.34165879244031        0.67605752581294
C           32.64460217416962        2.37277560638631        0.53406880667751
N           30.61054200994129        1.41717387981123        0.04740456777072
C           31.95312388249511        1.19289732593189        0.11818155777355
C           32.60395603724094        0.01578190660948       -0.27399648154868
C           31.91321414044431       -1.13904452230742       -0.66337701469438
C           32.56156968430271       -2.32768763989154       -1.12136894324455
C           31.59220966081216       -3.26071985267458       -1.28282175054999
C           30.35537102813749       -2.64078113272200       -0.90907448403286
N           30.56560849524441       -1.32311234359585       -0.57855705372105
C           29.14204186108445       -3.30888114634551       -0.82401058211277
C           29.11411587765174       -4.76748697571010       -1.08615559536044
C           29.85821353754508       -5.64406468431346       -0.29326416324355
C           29.83220395146483       -7.01057262340840       -0.53474694358846
C           29.06741995560319       -7.51815179746026       -1.57166311697261
C           28.32025023634931       -6.65212354234070       -2.37156855236180
C           27.51405362720095       -7.23516190665795       -3.47348739863746
O           26.82349061705003       -6.32377993296794       -4.17382137867162
O           27.46735255476052       -8.41046965000528       -3.73231320197321
C           28.34282725329831       -5.28065312874042       -2.12680869229419
C           27.95021653005787       -2.66920301664577       -0.49764301621071
C           26.69183465399410       -3.33999308913901       -0.33996049787146
C           25.75877165787599       -2.37963005183650       -0.13879508245181
C           26.44838226274787       -1.12495588869050       -0.16616442186823
N           27.79343504116553       -1.31891139376819       -0.34356020568215
H           24.73300800677836        0.11228951869350       -0.08444308856859
H           24.74371851323576        2.71346082554211       -0.24000557934130
H           26.66358177880448        4.59887757750001       -0.06335533410776
H           27.99325933343185        4.90773682421826        2.19386686472917
H           27.39082581879449        9.10257585463787        3.65630374181225
H           29.36817381524034        8.77022393298808        0.95171192232550
H           30.63606219683235        7.72120159419700       -0.89893200263511
H           30.57420355467583        5.27512916357182       -1.21232920875344
H           31.84765759902796        4.36440679762638        0.98625330942542
H           33.70952813162594        2.43772718090678        0.68891355728871
H           33.62196036322619       -2.42135313954684       -1.29199561662573
H           31.69533283263054       -4.27713057237000       -1.62632072847878
H           30.44760563714298       -5.24947855306115        0.52679549658996
H           30.41129288013030       -7.67931298316885        0.09177159350430
H           29.03684884858868       -8.58262994245863       -1.77497229743980
H           26.32681220575672       -6.78216021014156       -4.87098406879171
H           27.77206064016624       -4.60902592582713       -2.75709500150965
H           26.55347924207925       -4.40839103960622       -0.37668249183807
H           24.69675262290649       -2.49084508647512        0.01172163367392
Fe          61.01517618811975        0.11346272385173       -0.10234877906481
C           64.40274035917426        0.09098560156747       -0.23030777888459
C           63.73611895256020       -1.06385396207891       -0.58424155250779
C           64.39291768331827       -2.25199084308623       -1.03943241642771
C           63.42844134930301       -3.18518589802953       -1.21559350214403
C           62.18497347437140       -2.57074442457029       -0.84788844772420
N           62.38241102514229       -1.26075257447085       -0.50434567246498
C           60.96906716798793       -3.24380775742151       -0.79406397214914
C           60.94573600480594       -4.69106773157745       -1.11438077722067
C           61.67988661999359       -5.59861001618871       -0.35621798935393
C           61.65980664205803       -6.95784338596237       -0.66647516786438
C           62.46579874135121       -7.87579966086189        0.17752997763936
O           62.37688624746878       -9.16130820772650       -0.19332169155104
O           63.14498268072135       -7.52378442217021        1.10761164827382
C           60.90262823499677       -7.41834584716444       -1.74353403091180
C           60.17025100310779       -6.51651592046194       -2.49946479180384
C           60.18864618076345       -5.16418152920456       -2.18888432867202
C           59.77690960162754       -2.62140323182445       -0.45184353878344
C           58.52512613442442       -3.30604338976436       -0.31876698780097
C           57.58750646516724       -2.36063233492161       -0.06858785382128
N           59.60795381271997       -1.27409273222468       -0.23837675873923
C           58.26978439929817       -1.10483991095249       -0.04192928919842
C           57.60923521559776        0.12357878394941        0.08549807597609
C           58.28511056861143        1.34913755229069        0.13959173139330
C           57.61542279155145        2.60933474050414        0.22528176114253
C           58.57983562578928        3.55446138092183        0.33325788524534
C           59.83614593978942        2.86524960661648        0.32439560413656
N           59.63747572833505        1.51360144761543        0.17027190192316
C           61.06300832697993        3.48849547975058        0.49602165515583
C           61.08875267445318        4.95321800663119        0.73001138689738
C           60.50898046953127        5.50050961391707        1.87611102045532
C           60.53456879965051        6.87119446909964        2.09401088313732
C           61.13115717784289        7.71067534028312        1.16822659901610
C           61.71078206772403        7.17497431430588        0.01707481117922
C           62.33348279707261        8.10856170558684       -0.95502515301277
O           62.85750970626902        7.49657960479233       -2.02678569545981
O           62.37467583695715        9.30431021898192       -0.81731270426779
C           61.69278791402589        5.79844967221248       -0.19787181337326
C           62.27254052499659        2.80358459999095        0.45728052943188
C           63.54773873789787        3.41597738604203        0.69597304795111
C           64.48387734876198        2.45720640217107        0.50385130415647
C           63.77969365738335        1.26144486304989        0.15012339059373
N           62.42641856173694        1.47756646022766        0.15813361862852
H           65.48624550112294        0.08211487010877       -0.26674488055207
H           65.45548163868938       -2.33985065094259       -1.20094324952147
H           63.53697229452844       -4.19976493293633       -1.56281124051711
H           62.26367333868379       -5.26058050968031        0.49295353753260
H           62.93027025166221       -9.69266766164681        0.40195115585172
H           60.89079163796910       -8.47432280986599       -1.98477821209813
H           59.58165913046589       -6.86716909916720       -3.33967810424301
H           59.62410883459810       -4.46206917057566       -2.79219825889067
H           58.39228121890399       -4.37260773553567       -0.39950348897231
H           56.52798076856460       -2.48644796860364        0.08593131557983
H           56.54531890946610        2.73837431958978        0.20386628717854
H           58.46192155314398        4.62313108909403        0.40906395721265
H           60.04868614085886        4.84330724503304        2.60533509209236
H           60.08607572739577        7.28242155603873        2.99115046854955
H           61.15683508902855        8.78365992656529        1.32133704578430
H           63.23899978742945        8.17137593906067       -2.61156148847231
H           62.13578766097674        5.38433646226791       -1.09585697134204
H           63.69307856323113        4.44609625459172        0.97835149198342
H           65.55649679762246        2.53419483142496        0.58428847763582
C           37.79683303838134        0.05706257163386       -0.44313996795017
C           36.56793188100727        0.02441183021541       -0.38011054788401
C           35.22892780649674        0.00636739310748       -0.32824552356345
C           34.00318449776763        0.00300955019788       -0.29749862923649
C           39.13237710199435        0.11201622269031       -0.53391923145322
C           40.35281883100956        0.17905860875092       -0.63613974317259
C           53.64432085352330        0.17043253772197        0.08378602961840
C           52.41594257931177        0.19891957747748        0.01018400451127
C           51.08251031451100        0.23777487533720       -0.11700824550399
C           49.86640330388446        0.27888520308178       -0.27099761830111
C           54.98388058298648        0.14668204194387        0.12461883525079
C           56.20985037072268        0.13063970159016        0.12627110291039
Fe          45.12450226431964        0.40873062115428       -0.91739043197978
C           41.74183153684476        0.26733224338612       -0.76636229802101
C           42.42008827377256       -0.75357756047023       -1.45119040869393
C           41.75845750267428       -1.80075337910059       -2.16340041167505
C           42.72935751568054       -2.56022364254749       -2.72802951448310
C           43.98195663990161       -2.00565849459600       -2.30825347312109
N           43.77060886317065       -0.86330195283248       -1.57279513584974
C           45.21540001892507       -2.61842565066421       -2.48790179317095
C           45.28483438695437       -3.89751714340390       -3.23186085197253
C           44.57356130419205       -5.01631114617018       -2.80830781191926
C           44.64614701386947       -6.21136144640166       -3.52293161476003
C           43.85803779790089       -7.36727088631657       -3.02435449423418
O           43.99887089803113       -8.47244258388539       -3.76949705767177
O           43.15072570586064       -7.33681631712117       -2.05029343338953
C           45.43630939942557       -6.29448371265175       -4.66904467630407
C           46.15168098580345       -5.18359954902823       -5.08835005766154
C           46.08061008202960       -3.99498547514790       -4.37629483217082
C           46.39153654571958       -2.12081979203977       -1.93391469418080
C           47.62510038063137       -2.84546977503116       -1.87932186093080
C           48.51898422325793       -2.04789893972996       -1.24353541244108
N           46.53200730107141       -0.89718164052129       -1.33294133136835
C           47.83643295224604       -0.82912915379452       -0.94132554943420
C           48.48615424248351        0.32854089629594       -0.48959161174669
C           47.82953981956962        1.56334918996772       -0.36650383528452
C           48.50910930053482        2.80080300608290       -0.14590472706474
C           47.55798408600699        3.76689545509032       -0.11684486404032
C           46.29617685736367        3.10647023483533       -0.26934220322106
N           46.48723749040999        1.76031915858951       -0.47194586944213
C           45.06183216711709        3.71858032798884       -0.09506073701263
C           45.00927746473452        5.17179106806656        0.19288044116192
C           44.34470493520327        6.02893149529885       -0.68704031519682
C           44.28445222517163        7.39211591411204       -0.43438731058976
C           44.87664685880092        7.91354884558891        0.70377079340611
C           45.53408509486329        7.06506110123763        1.59563078512599
C           46.14427615643203        7.66222666683205        2.81084176650090
O           46.74982505030383        6.76604911180167        3.60259898520807
O           46.11164126184818        8.83563261898691        3.07916627404185
C           45.60210915139157        5.69721994535470        1.33840851823346
C           43.86232379279711        3.01401045253307       -0.10505083249886
C           42.60661401335291        3.55842302941928        0.31531383582369
C           41.69337643549461        2.56167826438018        0.20793588920745
C           42.38815938987219        1.42530843595151       -0.31064028200262
N           43.71417150212587        1.70023154842973       -0.46705556596320
H           40.68883015945696       -1.91519200981857       -2.23362165178953
H           42.61351374460127       -3.42449092093424       -3.36111008674663
H           43.97029805724593       -4.97756758218851       -1.90796623437817
H           43.45377485526421       -9.17714155705466       -3.38309284632932
H           45.48896008433336       -7.22327633209837       -5.22398605065839
H           46.76903613496712       -5.24143591964914       -5.97760535762840
H           46.63407030511800       -3.12610966453553       -4.71448645169669
H           47.77307191703267       -3.84333750418998       -2.25901677150815
H           49.55293040251401       -2.24698997998999       -1.01227509864390
H           49.57749061519060        2.90550644545516       -0.04668815109094
H           47.69066419830189        4.82898296242558        0.00900704269642
H           43.88503526817426        5.62064913410511       -1.58012525356550
H           43.77157470369652        8.04678974684911       -1.12963922751910
H           44.83620553341668        8.97543117437961        0.91863281071483
H           47.11815568435986        7.23180254351172        4.37099669014209
H           46.09925332377630        5.03867761827342        2.04064994889870
H           42.45745803902111        4.56607751752398        0.66772870458904
H           40.63969627482511        2.58676839397796        0.43440136633457
