185
 energy: -335.399454841908 gnorm: 0.000742952471 xtb: 6.5.1 (b24c23e)
Co          31.27217168433954        0.02952974297851        0.04850799117527
C           27.90276386790547        0.03345036018709        0.18318296218504
C           28.55692504683253        1.24419363497530        0.10129881582315
C           27.89458637776804        2.51097960137288        0.03110923307538
C           28.85446210190692        3.45829072939425        0.15056542826925
C           30.10043035780618        2.76737885371360        0.31271665426303
N           29.91464167723794        1.41267930381522        0.20987616021233
C           31.29750165473203        3.38149086108759        0.65819699670445
C           31.31418521153246        4.83808728972508        0.91803135270571
C           30.51257726520637        5.39061676122536        1.91980635922894
C           30.53299553584397        6.75128006228910        2.16779312371122
C           31.35537967723628        7.58985206102529        1.40941892015574
C           31.37677791727254        8.99102260930586        1.66008685813023
N           31.39465140569211       10.12358046790750        1.86209336360678
C           32.15742838809705        7.04221597946758        0.40374629817015
C           32.13713707152758        5.67980821843581        0.16579557543809
C           32.47922084398504        2.66472611760549        0.77837662303701
C           33.72289245492316        3.22709231237923        1.21170375602914
C           34.66747512473621        2.27272230834703        1.03030772399017
N           32.65224721108048        1.35314199101278        0.40088613175964
C           33.99753432275566        1.13097530343827        0.49347639520252
C           34.66340574009990        0.00991322814588       -0.00940594212348
C           33.96931032691717       -1.09524229924570       -0.51003879812926
C           34.60696718620888       -2.22952383238425       -1.09915020600912
C           33.64188962593295       -3.16111951135422       -1.29121200437413
C           32.42013877922731       -2.59651314937306       -0.80173263092512
N           32.62394370460145       -1.29945413144181       -0.38878732339616
C           31.23820804212847       -3.30553800438494       -0.64681066027624
C           31.22047404098906       -4.75246822494732       -0.95597908097118
C           30.35074123316980       -5.25934788115799       -1.92449873032024
C           30.33413534966511       -6.61094183722457       -2.21827148175159
C           31.18706867709270       -7.48629805102354       -1.53944393917231
C           31.17141611550135       -8.87834267271916       -1.83705001464435
N           31.16113923487513      -10.00376063573034       -2.07679701811049
C           32.05623058226266       -6.98465663434416       -0.56600742934296
C           32.07241964099599       -5.63102301761106       -0.28222237016603
C           30.07179441923340       -2.69661955240339       -0.20049770058767
C           28.84118815172089       -3.39002784315754        0.04564844362310
C           27.90099190735489       -2.44578487082293        0.28528309042272
C           28.55956549473467       -1.17830318125251        0.19317789239946
N           29.90186095104422       -1.34588328205338       -0.04092059010357
H           26.82035625039369        0.03403681576958        0.23261743956330
H           26.83055882375231        2.63796146213109       -0.08928348627479
H           28.74240458897085        4.53029131718438        0.13678491754594
H           29.88366757653061        4.74206447713742        2.51913941999350
H           29.91381071799966        7.17190812570110        2.95142606767439
H           32.79378728169546        7.68959213412198       -0.18817114109497
H           32.75205890963415        5.25998595780105       -0.62223733117691
H           33.84560545193282        4.22354795182459        1.60369799218120
H           35.72611569314271        2.32469081189635        1.22715842808140
H           35.65915627143897       -2.29099399591305       -1.32571997571778
H           33.73827821715022       -4.14466951563009       -1.72128635507118
H           29.69642721627332       -4.58198291415442       -2.46153970315036
H           29.66164032645591       -6.99586130622906       -2.97589937482075
H           32.71543811764672       -7.66104312459836       -0.03464001100131
H           32.73884871947730       -5.24757054392392        0.48210944567969
H           28.72577374239199       -4.46169788895008        0.03268562122620
H           26.85148126828918       -2.57484729913949        0.49651121302824
Co          63.18350486461832        0.00662388259019        0.07361884663271
C           66.55661892053661        0.00868707296578        0.21202117104653
C           65.90235325944580       -1.20424902417641        0.20932103641486
C           66.56762700462964       -2.47135930996018        0.22339912934815
C           65.60777117141545       -3.41225848058376        0.38308741711582
C           64.35838157794905       -2.71618922043062        0.48670965215024
N           64.54359115902142       -1.36817368645639        0.31161729318661
C           63.15772406725241       -3.31628727486396        0.83951170630184
C           63.13942636627300       -4.76039880631869        1.16433872629061
C           63.91186782746681       -5.26223464785144        2.21434713522165
C           63.89027721792039       -6.61053440293545        2.52270348949853
C           63.09602787694910       -7.48729675023826        1.77765863770405
C           63.07339672224511       -8.87574404527385        2.09103442211396
N           63.05484205653757       -9.99750351177846        2.34671879909393
C           62.32321402931839       -6.99031904487599        0.72391778109842
C           62.34430029612406       -5.63980546529937        0.42567714925348
C           61.97289801070490       -2.59828806896801        0.91041018217419
C           60.72681193049728       -3.14854287816235        1.35199193443326
C           59.78242646500630       -2.20246196266611        1.13295299437983
N           61.80143471243480       -1.30151005381968        0.48497784963050
C           60.45417725839039       -1.07760196801407        0.56350974638281
C           59.78839387565458        0.02816243220983        0.03242685400725
C           60.47880300770225        1.11576816028178       -0.50527821418574
C           59.83512627684478        2.23023489910108       -1.12497804146316
C           60.80067820121776        3.14717767900458       -1.37411176334300
C           62.02942835859117        2.59504594336950       -0.88822764258116
N           61.82813438143453        1.31831995559820       -0.41569106962775
C           63.21907324067309        3.30234841928152       -0.80016934127366
C           63.23874281614136        4.72996634705532       -1.19133925671672
C           64.07381282368280        5.16975268901579       -2.22103943391650
C           64.09130808926484        6.50186955459101       -2.59335037327625
C           63.27471292433805        7.42487331175806       -1.93313250107831
C           63.29100470270197        8.79679400436297       -2.31269960663801
N           63.30301531634507        9.90546041916476       -2.62077201705396
C           62.44155922865500        6.99065054839402       -0.89782567044549
C           62.42382391210176        5.65577379257534       -0.53569058023149
C           64.39060266081709        2.71292627891559       -0.34490320051276
C           65.62699826537612        3.41555379237281       -0.16187948387463
C           66.56551003638602        2.48609929574267        0.13352813425468
C           65.90118132972522        1.21821445411685        0.13549125333054
N           64.55736222342686        1.37417397615392       -0.09896686959363
H           67.63886631321657        0.01096200353680        0.26414092955272
H           67.63351171737484       -2.60239102831397        0.12574743081799
H           65.72149480560616       -4.48300340814220        0.43325954872716
H           64.51908697373200       -4.58354505922573        2.80258856222219
H           64.48667386645009       -6.99166221307783        3.34335511445676
H           61.70883313399041       -7.66769959170572        0.14244380227651
H           61.75153099161773       -5.25916129625304       -0.39841907783887
H           60.60324529280197       -4.13196045585757        1.77537949690051
H           58.72257679739338       -2.24934424631599        1.32453603907214
H           58.77878155985373        2.28876728521795       -1.33219093946895
H           60.70054080542176        4.11364743356524       -1.84050125354068
H           64.70022443627590        4.45486998362784       -2.74251537925907
H           64.73613967146993        6.83459883893942       -3.39828484610877
H           61.81122163641817        7.70432563515782       -0.38035899520543
H           61.78491337063854        5.32470311388200        0.27520583725871
H           65.74619513828807        4.48318012412207       -0.25105609306266
H           67.61770561099836        2.62406701484525        0.32491784674025
C           39.86159083664220       -0.01524831835811       -0.03999797490896
C           38.63217977410292       -0.01643625809548       -0.03672013155329
C           37.28962528529948       -0.01113746519952       -0.02921389789787
C           36.06505287213527       -0.00120285485106       -0.02237053126722
C           41.20390545628475       -0.01229978145606       -0.04584108735600
C           42.42883993320063       -0.00763371963638       -0.04676857019136
C           55.81524688196345        0.04705109957793        0.01401466980108
C           54.58700681104389        0.04683261289043        0.00791562802115
C           53.24253476691347        0.04414813481985        0.00045699474751
C           52.01861860643955        0.04211183067957       -0.00830058697464
C           57.16013796249510        0.04453692411619        0.02076015739706
C           58.38361028690331        0.03925092908057        0.02512252006305
Co          47.22245620998290        0.00941480550156       -0.01040534491257
C           43.82942368628203        0.00047176520577       -0.04843484680163
C           44.51914204475053       -1.20562983967314       -0.21009930613374
C           43.87876663063196       -2.47606646073470       -0.33372508494416
C           44.84065084085358       -3.36217935482831       -0.69112992585237
C           46.06282950512939       -2.62413488050484       -0.79400431494765
N           45.86246754930880       -1.31269011626760       -0.43178167561501
C           47.24526890288089       -3.12943123428738       -1.31706030085093
C           47.25785886153732       -4.50217465258110       -1.86803552035665
C           46.40166901125496       -4.85403223796591       -2.91429678514235
C           46.41459128218722       -6.13580869508987       -3.43406558482167
C           47.28347941431220       -7.09666900692266       -2.90841395856700
C           47.29748873609673       -8.41779976235921       -3.43872717866747
N           47.30954212849512       -9.48556372674453       -3.86752616939554
C           48.13890926193848       -6.75085418589560       -1.85805812599604
C           48.12626588121411       -5.46521379678039       -1.34819443889106
C           48.41850857733170       -2.38645152462513       -1.33276837253620
C           49.65187479146697       -2.83536565747628       -1.90436509808045
C           50.60206427199640       -1.94378604976404       -1.53083502893235
N           48.59826082907351       -1.18572255473291       -0.68723239227423
C           49.94324891459794       -0.94891406325649       -0.74592737387685
C           50.61563585869745        0.03769649562947       -0.01950040100284
C           49.92539621443218        1.02088891348475        0.69511627690719
C           50.56359394024116        2.02263608609426        1.48781484951743
C           49.60106211119834        2.91007306872854        1.84031810987408
C           48.38090244177157        2.45003051584250        1.25018476222691
N           48.58178963211520        1.25336696820061        0.60473494778623
C           47.19966905473640        3.18022321646687        1.21656609716354
C           47.18991369165712        4.55312798569320        1.76723496214515
C           46.32003517907592        4.89296579497278        2.80619990311717
C           46.31265397018433        6.17393679904969        3.32798693732290
C           47.17485786513326        7.14592279360632        2.81187511835945
C           47.16801077050960        8.46614373313838        3.34459726768483
N           47.16341558045627        9.53261865409164        3.77657564618158
C           48.04440123601643        6.81193326450860        1.76931872761936
C           48.05202947227183        5.52700915496059        1.25740584633719
C           46.02831764431438        2.65768924082859        0.68650523516069
C           44.79614890096619        3.37879518826326        0.57971325149803
C           43.84600936556876        2.47745909374223        0.23024523384629
C           44.50392746452616        1.21530640964756        0.11130439946852
N           45.84735241090601        1.34337189948509        0.32173435744233
H           42.82699092021043       -2.65001849333411       -0.17342394294295
H           44.74154347250727       -4.42016445999150       -0.87138996278683
H           45.73532173097772       -4.10825566341151       -3.33278675895621
H           45.75286907160341       -6.39948567456364       -4.25074696133606
H           48.81046779213812       -7.49435451274717       -1.44506107447342
H           48.78228112760945       -5.20413301216205       -0.52550814122012
H           49.76603073751052       -3.72060886757396       -2.50842259159417
H           51.65724492287215       -1.95006358941426       -1.75144558439054
H           51.61445847561738        2.03636205165668        1.72791062395482
H           49.69872904634020        3.79796274390163        2.44341783957158
H           45.65902925937691        4.13853517606658        3.21760101763044
H           45.64026171506841        6.42813400109633        4.13893512023469
H           48.71113348061134        7.56402161207211        1.36412211769481
H           48.71928702363535        5.27484802447919        0.44101625548456
H           44.68257229090326        4.43606875888072        0.75541365754714
H           42.79146216086465        2.63574263446546        0.07209680030064
