115
 energy: -201.474720173207 gnorm: 0.000629334765 xtb: 6.5.1 (b24c23e)
Zn          16.11970691792798       -0.01738475398707       -0.02239097470314
C           12.69235584259335       -0.03518020840656       -0.04843584749246
C           13.32775649905170       -0.90935592922242       -0.92374607859877
C           12.66650558292398       -1.80958744779988       -1.83051816368015
C           13.63519716933517       -2.48098673079858       -2.50242152193570
C           14.89929293759654       -1.99935772811255       -2.01342790977574
N           14.67772088166954       -1.04947440983658       -1.06021107782227
C           16.14905614920093       -2.43331245793988       -2.44235747978552
C           17.38741823579878       -1.99195263824297       -1.99217274309090
C           18.65881021485274       -2.46823981456629       -2.46091649942852
C           19.61457408653815       -1.78962260829829       -1.77572855332320
N           17.59350510575676       -1.03612911900070       -1.03421733683307
C           18.93576660647908       -0.89293703127864       -0.88291390823288
C           19.57131117890453       -0.00294346405325        0.00745587817302
C           18.91300016249728        0.88169672438515        0.88636453152210
C           19.56869315989538        1.78476305414512        1.78988420583526
C           18.59553447471936        2.45703247348455        2.45660610306347
C           17.33646714990378        1.97001322594030        1.96607596759938
N           17.56710085394743        1.01450789353667        1.01342771821334
C           16.08694950386436        2.40259776355813        2.39344026385818
C           14.84832334895337        1.95646130578467        1.94513838196425
C           13.57198126337561        2.42762020468602        2.41208572244202
C           12.62065637190376        1.74347862390967        1.72833156971077
C           13.30496012346204        0.84690022027967        0.83512842268787
N           14.65115205906778        1.00129030530001        0.99188726359083
H           11.60680988901640       -0.04125139507557       -0.05655050816441
H           11.59636024622585       -1.90500451428086       -1.93004015555094
H           13.51849755996013       -3.23706733114559       -3.26331975433748
H           16.15880655314419       -3.19963718691470       -3.21146347600393
H           18.79146982433882       -3.22548618211488       -3.21781543510107
H           20.68608734551804       -1.88047152901466       -1.85978616273151
H           20.63781972664494        1.88365547863873        1.89311860693591
H           18.70861781985993        3.21626498012030        3.21468996342522
H           16.07731399477237        3.17157148457734        3.15989897874863
H           13.43581998263979        3.18589225246390        3.16755141370685
H           11.54818670253029        1.82836183037349        1.81097749861131
Zn          43.14551338728649        0.01184477946271       -0.01735264073047
C           46.57244858361743        0.04906391892832       -0.00148528324421
C           45.93521029691424        1.28406538148234       -0.05320546004753
C           46.59435587524322        2.56207303864042       -0.10110275211982
C           45.62413010907179        3.50958600379126       -0.13784032226785
C           44.36107509488659        2.82160674472971       -0.11226715790612
N           44.58493384025296        1.47720089794860       -0.06301038298235
C           43.11027926483096        3.42920550081757       -0.13029282781302
C           41.87307797676519        2.79676116290737       -0.10439628019901
C           40.60039173524720        3.46273286716523       -0.12056940700525
C           39.64630374790598        2.49747869143519       -0.08763493322779
N           41.66950066181266        1.44411457509789       -0.06204152940984
C           40.32717317810406        1.23349260963242       -0.05226996438155
C           39.69440440927019       -0.02558346983818       -0.02645100076205
C           40.35387376418949       -1.27076785477111        0.00034447692181
C           39.70034864473174       -2.54925069232298        0.02937346962470
C           40.67495255720328       -3.49365325954872        0.06592803570159
C           41.93297954826676       -2.80018366152312        0.05916762013917
N           41.70039495183922       -1.45225359872279        0.01678251533825
C           43.18340245822941       -3.40555817503010        0.09492125285845
C           44.42078514331934       -2.77085394255901        0.08866442295236
C           45.69817825182570       -3.43122719307761        0.12658583972821
C           46.64790431461268       -2.46285058570358        0.09914606487307
C           45.96166192556392       -1.19946776375736        0.04437168860046
N           44.61586034776046       -1.42191768809467        0.04086537584530
H           47.65796389675423        0.06083214679782        0.00358766003216
H           47.66427893792491        2.70164915055334       -0.10538321900897
H           45.73910459810336        4.58168837101343       -0.17818199153701
H           43.09836766506209        4.51423947814336       -0.16771628711322
H           40.46604957888120        4.53269288304879       -0.15327390208930
H           38.57457109400126        2.61929475373924       -0.08836094251717
H           38.63151101839199       -2.69416311139239        0.02349465450885
H           40.56368493075429       -4.56633648295854        0.09572578483364
H           43.19480076917233       -4.49064200059045        0.13145115334648
H           45.83598153808129       -4.50056240915009        0.16884423976477
H           47.72051092448653       -2.57911060663727        0.11426193443817
C           22.19892250797356        0.00870007808958        0.02294612587841
C           20.97661082973004        0.00267893920843        0.01831092539095
C           23.54834212296470        0.00850628444283        0.02669884206279
C           24.77050321669210        0.00608000213927        0.02152042040090
C           35.71480215022473       -0.06057839855346       -0.02061267694223
C           34.49313857988707       -0.06224547346523       -0.01556248874834
C           37.06567926843945       -0.05316637881633       -0.02599497898078
C           38.28722978194551       -0.03989011723243       -0.02591595104172
Zn          29.63096256986409       -0.03067623459881        0.00609718364579
C           26.17532560849688       -0.00290107556273        0.01731112805525
C           26.83348036605263        0.93331011044336        0.84141862715820
C           26.17767025560170        1.89394694942545        1.68255941377034
C           27.15097310684885        2.60954059836526        2.30301255061097
C           28.40915288447731        2.09109148351149        1.84571822402396
N           28.17940011672507        1.07286872567134        0.96041956426604
C           29.65915764800162        2.55493329702555        2.23725894843055
C           30.89892759660280        2.08510460002317        1.82070280216653
C           32.16838010618074        2.59925472137546        2.25117231329290
C           33.12587402458997        1.87106573895468        1.62116767342327
N           31.10618624520801        1.05870459525311        0.93971603310333
C           32.44920525417987        0.90598017809622        0.80158257181245
C           33.08646237006716       -0.05657474954520       -0.00740918054565
C           32.42899839401750       -1.01032351060489       -0.81033237558063
C           33.08481613706340       -1.98455389308992       -1.63599472212831
C           32.11164818102385       -2.69758128175124       -2.25933963730165
C           30.85338237980939       -2.16474736490925       -1.81875852910213
N           31.08276825407357       -1.14297664031789       -0.93791297383525
C           29.60351017475273       -2.61363211367775       -2.22822874712531
C           28.36373456702815       -2.12992143053097       -1.82835136578718
C           27.09447390754195       -2.62604572676972       -2.27968804121882
C           26.13687785174178       -1.89627734222620       -1.65142662900871
C           26.81344852903406       -0.94841944381769       -0.81217393754949
N           28.15609179524140       -1.11015560666075       -0.93933507536981
H           25.10854616717751        1.99975192240605        1.77843289138950
H           27.03798636269789        3.41798901247433        3.00836428888225
H           29.66829992316388        3.37655721626789        2.94715761856489
H           32.29903965451130        3.41322646506017        2.94704243177929
H           34.19715179722714        1.96956278439679        1.69875017526353
H           34.15391434149157       -2.09900498939504       -1.72159545566562
H           32.22459838217924       -3.51253209080558       -2.95718207436096
H           29.59474792648042       -3.43365505415626       -2.93997922258507
H           26.96383064549723       -3.43025459731098       -2.98681844999065
H           25.06563347223045       -1.98390298955946       -1.74167604912181
