252
 energy: -484.400736501008 gnorm: 0.000737835046 xtb: 6.5.1 (b24c23e)
Cu          51.29791211098239        0.19752659052520       -0.82181843863545
C           47.89516137778661        0.05256137795889       -0.68521557902584
C           48.47082552521968        1.31065692921707       -0.59489724040788
C           47.73605703073073        2.53833015381890       -0.48205911439552
C           48.64724459274207        3.54096810177011       -0.43462203596412
C           49.94852155981682        2.93304208444480       -0.50694422578810
N           49.81009181648911        1.57875417907572       -0.60806360330069
C           51.16043543205491        3.62630395507847       -0.50713249917645
C           51.10043663428693        5.10468456018224       -0.37750769077155
C           50.58450445546146        5.69236482700238        0.77372724355704
C           50.52615268225569        7.08036448469019        0.89407683175096
C           49.96782263132872        7.64688568964134        2.14763012775833
O           49.95776732530665        8.98762096700695        2.17193440484314
O           49.55637770741638        6.98745548515255        3.06765285817237
C           50.98284378612242        7.89192993577246       -0.14429251518213
C           51.49560879993033        7.30886456570352       -1.29239975152674
C           51.55671381668135        5.92732514606951       -1.40987686602897
C           52.42268797973880        3.04065231436957       -0.61991064165065
C           53.66569880306240        3.75667632496923       -0.57427925081728
C           54.65748337891255        2.83873800169644       -0.69772171436993
N           52.67775375130756        1.70218634446593       -0.76059272627002
C           54.03085199977706        1.55603139813553       -0.80814526418421
C           54.72654282380296        0.34262885783342       -0.94770627331648
C           54.12673148793792       -0.92517013139261       -1.04308788954252
C           54.84971085866812       -2.15062147552516       -1.20474493925405
C           53.93257957229177       -3.14832165802694       -1.26846467533843
C           52.63991530557346       -2.53991707956745       -1.13064417759420
N           52.79068985940293       -1.18473491645014       -0.99785812238121
C           51.42680161741674       -3.22999158283423       -1.15676591676595
C           51.48199618835019       -4.70661791591244       -1.30778372833914
C           52.08850937325661       -5.49981428359486       -0.33166217507447
C           52.14097868543730       -6.87959489129755       -0.47441715296035
C           51.59182376466140       -7.48368170629357       -1.59294851705773
C           50.98273961511336       -6.70151097234804       -2.57548760264426
C           50.40689407174904       -7.38550179984596       -3.76008968464423
O           49.83788236774397       -6.54836233230091       -4.64030056417774
O           50.43349039517590       -8.57664402599583       -3.93712268261608
C           50.92741443141901       -5.31666790792774       -2.43062941812150
C           50.16444649280253       -2.64206222440003       -1.05397245005022
C           48.91811952471868       -3.35868664607126       -1.02563727031262
C           47.93202465155881       -2.43769104434914       -0.89263747222254
C           48.56656309978615       -1.15205229292776       -0.82967576693851
N           49.92018094027068       -1.30479114491386       -0.92947292047984
H           46.81203365881215        0.00606295714155       -0.63978598840655
H           46.66021802793190        2.60943529508805       -0.45316329748467
H           48.46208133803383        4.60083041494619       -0.36628572941965
H           50.23529526042280        5.07699461765657        1.59566944887262
H           49.58123440779656        9.27759468091944        3.01870501236960
H           50.93446348911453        8.97000313937428       -0.05025279412739
H           51.84931776394605        7.93367205919855       -2.10475269885229
H           51.94815175813057        5.47764725713278       -2.31558032605986
H           53.76412563806077        4.82306319387850       -0.45091969826810
H           55.72174637434242        3.00864963196252       -0.71189597871183
H           55.92275061459155       -2.23115000065635       -1.26252848404647
H           54.11224295907620       -4.20215438489255       -1.40622032223711
H           52.50877602969145       -5.02985862733355        0.55044322056707
H           52.61228250841379       -7.48287038378629        0.29304269294976
H           51.62550897729693       -8.55971481145037       -1.72090866565451
H           49.48847707663303       -7.07124702976020       -5.38007382829584
H           50.46518283720084       -4.71016274769781       -3.20049960515803
H           48.81887390049756       -4.43042913765773       -1.08798597664536
H           46.86749046085682       -2.60051542719833       -0.83252898373039
Cu          84.01447482778188        0.27473693784634       -0.63789669682018
C           87.41902797711795        0.15235223338626       -0.53748603556226
C           86.75727657720122       -1.04407180979285       -0.76852098649975
C           87.40465576259632       -2.30047114914218       -1.01807444049826
C           86.42541019229040       -3.22152707016779       -1.19281406853759
C           85.16968503947129       -2.53831326285048       -1.03517221736047
N           85.40247599884415       -1.21564997439437       -0.78971148044894
C           83.91035468226330       -3.13520341808028       -1.12155219235807
C           83.85878501377897       -4.60010845238846       -1.35312877627152
C           84.42993126856940       -5.48666977112809       -0.44471019686838
C           84.38174259653114       -6.86158236178409       -0.67234719883936
C           85.00940711433796       -7.75515294214886        0.33327940794755
O           84.90702216281456       -9.05778222475727        0.03115723699454
O           85.56662294949209       -7.37198544465794        1.32992083475738
C           83.76008545616132       -7.35999703673903       -1.81716930868955
C           83.19038465479653       -6.47946211523376       -2.72338660211594
C           83.23687005283493       -5.11155928390085       -2.49505174233468
C           82.69221837407939       -2.46033935135959       -1.01087291804936
C           81.40430066040690       -3.09300663673953       -0.99427666944710
C           80.47927853563289       -2.10674463109443       -0.87778456781758
N           82.53151533223421       -1.10598991449488       -0.88838172961780
C           81.19211966864539       -0.86660578722512       -0.82311424409308
C           80.58281690167379        0.39756583065049       -0.73686659821862
C           81.27360254798057        1.61510714737242       -0.60792181742367
C           80.64774040356552        2.90240617661590       -0.58549643633632
C           81.63306088983732        3.82141761032535       -0.42350167184576
C           82.87101455937555        3.09974320913935       -0.34527807041661
N           82.62132670243550        1.75933054044209       -0.47346871756591
C           84.12714166557340        3.68748492808208       -0.18120277806825
C           84.17243450576194        5.15838338808587        0.01468315469261
C           83.55374320597059        5.74469072598382        1.12107914581112
C           83.59631892005559        7.11921042510845        1.30916677051268
C           84.25223491078191        7.92541512268250        0.39394177348834
C           84.87205949715346        7.35167648404386       -0.71722533410285
C           85.56164311266686        8.24937075115929       -1.67734145792107
O           86.12457476741764        7.60246283887642       -2.70859590610989
O           85.62364770232685        9.44684878059924       -1.56393111087252
C           84.83312998897843        5.97128190370223       -0.90367345632878
C           85.34299092490669        3.00111904609705       -0.19145096183937
C           86.63285925875954        3.59612722824551        0.03234905649412
C           87.55212140461077        2.60492659886968       -0.07181057717982
C           86.83231821498943        1.39457499676885       -0.34854145661679
N           85.49444731472991        1.66220225307791       -0.41033203958856
H           88.50289092259703        0.11324096011677       -0.50440151764792
H           88.47290341673562       -2.44268826558105       -1.06192429427220
H           86.53656145628111       -4.26995229771521       -1.41788594766920
H           84.90477955885348       -5.11892964162707        0.45833805069873
H           85.34054966267959       -9.57098692756527        0.73231234956330
H           83.72552087403874       -8.42828142724747       -1.99322044663769
H           82.70787236566429       -6.85931041342482       -3.61689247211384
H           82.80063205652408       -4.42759569191173       -3.21457804634220
H           81.23364032986824       -4.15632595236627       -1.04244872312857
H           79.40797340953584       -2.20564901889894       -0.81611666594619
H           79.58966835075989        3.07574187177073       -0.69440774103301
H           81.53557000936756        4.89408713886376       -0.37974832620771
H           83.04914776822825        5.11381264604600        1.84431789053983
H           83.11576281850003        7.55956832764539        2.17535472338946
H           84.29400049333346        9.00082768320508        0.52482151177323
H           86.55036612226576        8.25650538646937       -3.28635653168679
H           85.30420927215124        5.52939615996332       -1.77372661786559
H           86.80457772285855        4.63764033538291        0.25175352520422
H           88.62327944862193        2.67145060798702        0.03569115474056
C           56.13499834225249        0.39929947216494       -0.99569439990040
C           57.35061037184723        0.44001073388724       -1.03661081122050
C           67.04316725821457        0.62367839536335       -1.15509753276274
C           68.26072900495296        0.63443343080879       -1.15420127502137
C           77.95910041631849        0.48896990817802       -0.84955187595732
C           79.17409065620910        0.44725138022609       -0.79168549507842
Cu          62.19616184866359        0.54604856051867       -1.12743065001657
C           58.75907910442473        0.47856933872037       -1.07458776468510
C           59.42575376328078       -0.62421862106825       -1.63789655986521
C           58.77425168329662       -1.72633453492958       -2.27818604288497
C           59.74341022327137       -2.60504809423973       -2.64028637353370
C           60.99516188838838       -2.04638542187818       -2.21615819589542
N           60.77155977094158       -0.82900834100057       -1.63054117187810
C           62.24042491706553       -2.66295047829287       -2.35938996982171
C           62.25973190632586       -4.04590586130776       -2.89384008981404
C           61.55637196457004       -5.06288825357579       -2.25356801079731
C           61.57422662865476       -6.36236804928123       -2.75822373618090
C           60.80038118186211       -7.40076698398993       -2.03250542158338
O           60.89301182459017       -8.62037807100601       -2.58221158436048
O           60.14170760614903       -7.19282075191579       -1.04573592059931
C           62.29933124024240       -6.65414489277957       -3.91356010811055
C           62.99941675285814       -5.64374748624921       -4.55401629790318
C           62.98208314554806       -4.35082586215412       -4.05055919850986
C           63.46859506488486       -2.08148696868040       -2.03538559878690
C           64.73444904342236       -2.75591694760839       -2.06708410211492
C           65.67865516558649       -1.84302025794158       -1.72332813806113
N           63.65920550022687       -0.78033485397836       -1.65352327163545
C           64.99828051328772       -0.60775051674216       -1.47907546596423
C           65.63476412562146        0.60402857042326       -1.15342682971930
C           64.96349336289475        1.79563450012349       -0.82301739286968
C           65.60728651001355        3.05183822013975       -0.58669696536581
C           64.63779694769188        3.93627972605926       -0.23869402361047
C           63.39343526745253        3.22237026361948       -0.25692951290572
N           63.62141108910313        1.92684688609558       -0.63798303345657
C           62.15147759544584        3.76428602306363        0.08193601081827
C           62.13262380593346        5.15117558524651        0.60708771385603
C           61.39153237142868        6.14439383583044       -0.03786960063905
C           61.37301613958884        7.44319973494830        0.45092183997075
C           62.09064201966968        7.76697018122569        1.59026482724276
C           62.83383998729406        6.78350420615331        2.24491718209632
C           63.58846285787561        7.16959850843247        3.46385628157239
O           64.27218456090044        6.15672863104685        4.01538944905793
O           63.60195907642608        8.27977674337957        3.93062997598619
C           62.85466859285320        5.48032834914394        1.75275104356865
C           60.92612488062647        3.10256763761142       -0.02880693247519
C           59.66646360356184        3.61765531867248        0.42589544564378
C           58.72222752718420        2.69648969587349        0.10485292437274
C           59.39714996275843        1.61362303679132       -0.54377887194526
N           60.73265315721280        1.87259278139678       -0.59788386383189
H           57.71208514417682       -1.80322696181733       -2.44370727158115
H           59.62489609238492       -3.53961080687899       -3.16413221703510
H           60.99990976207633       -4.85861561797243       -1.34533651288642
H           60.36102161907477       -9.23687587171337       -2.05310909065607
H           62.31105557641399       -7.66413885603633       -4.30490143841511
H           63.56187267158145       -5.86230088730122       -5.45472806123737
H           63.51964897139882       -3.56252212066827       -4.56569572612494
H           64.87803793440121       -3.79885666620194       -2.29874202951709
H           66.74140543641923       -1.99217015780918       -1.62562675847948
H           66.66468718742235        3.23238238130315       -0.69084686242309
H           64.75088247732253        4.98340338283493       -0.00895618883973
H           60.83993296115701        5.89623936538281       -0.93782963292717
H           60.79644622922061        8.20393323235325       -0.06293559085139
H           62.08648239530768        8.77638427241866        1.98576731935571
H           64.73276712646383        6.48841826733756        4.80333912347743
H           63.42058093303843        4.71558016997606        2.27149208563151
H           59.52752593199863        4.55302219970447        0.94345758536681
H           57.66303649158352        2.73420063358409        0.30103215573298
Cu          73.11100178415251        0.59259731233644       -1.05229262546672
C           69.66954819051418        0.63504460700197       -1.14205152040703
C           70.32450636197197       -0.44706470254973       -1.75870566065328
C           69.65944676380758       -1.49418523867270       -2.47409522501485
C           70.61709050058481       -2.35888916594946       -2.89469385171063
C           71.87586108047201       -1.84499749758605       -2.43558083611933
N           71.66623459547641       -0.67242662429097       -1.76021018674735
C           73.11500917348650       -2.44675162132862       -2.66193586087426
C           73.11489547721659       -3.76343867800512       -3.34825095766262
C           72.48272263568917       -4.85918498398715       -2.76749345427859
C           72.49039329271882       -6.09980666039758       -3.40384231232633
C           71.80722008572960       -7.23181490081402       -2.72907141817810
O           71.89493082782057       -8.38905295429058       -3.40142459044879
O           71.22439661253100       -7.14602152333217       -1.67855170616583
C           73.12838609371229       -6.24990670697142       -4.63512389489498
C           73.75348081363953       -5.15890936600906       -5.21830495776987
C           73.75060080966927       -3.92585841396156       -4.58134712871915
C           74.35340462274152       -1.91898774991931       -2.29063674227067
C           75.61594913189865       -2.57384369152940       -2.48061249311893
C           76.57131305881116       -1.74048260583989       -1.99625917560655
N           74.55890865248541       -0.70893843174045       -1.68377544228366
C           75.90058228847833       -0.57901355516881       -1.49494411022876
C           76.55077884682413        0.52590076429589       -0.91629758759241
C           75.90241370667239        1.66353562205407       -0.40332722974283
C           76.57698212573759        2.80631177233272        0.13450579182503
C           75.62029194218667        3.68656270201203        0.52375094345134
C           74.35135068842889        3.07766664543922        0.24287695212228
N           74.55616148057643        1.85038190007796       -0.32854598240947
C           73.10876157466436        3.65430516730604        0.51377911926425
C           73.10401120539503        4.98500801695899        1.17285386539331
C           72.54326552367016        6.08797637500653        0.52484181989694
C           72.54294523768928        7.33806247018658        1.12781313703081
C           73.09804004295658        7.50200474071796        2.38586714366265
C           73.65691499814506        6.40651814138507        3.04588424915787
C           74.23917390484556        6.62290566028104        4.39411900917011
O           74.74910387464266        5.51094883552188        4.94357424572489
O           74.26506340335587        7.68566292810027        4.96021221892144
C           73.66014952377223        5.15202787792518        2.43908335318069
C           71.86814304389000        3.08436647279981        0.22023079331370
C           70.60069665089409        3.63757475559448        0.60397903969726
C           69.64420307934050        2.78678831074141        0.15295812722732
C           70.31801649759296        1.71183004972969       -0.51062422091590
N           71.66365250992799        1.90735657911530       -0.44818818630125
H           68.59664182072348       -1.54553382169453       -2.64454074798226
H           70.48775114168555       -3.25640138849256       -3.47754887426355
H           71.99147078094842       -4.76356350461134       -1.80531688825069
H           71.42982809145379       -9.07435579153107       -2.89449408220025
H           73.13172146565424       -7.21394079113187       -5.12914982567415
H           74.24767299591194       -5.26739912541537       -6.17717075971774
H           74.23317761070317       -3.07435163779543       -5.04798576234378
H           75.75134892682979       -3.55038065676388       -2.91657936287954
H           77.63766612872450       -1.89417982935542       -1.97760570974618
H           77.64686896214104        2.91787359133711        0.19955279052616
H           75.76025796368087        4.66472660405107        0.95443873991964
H           72.11867966594707        5.96323900821257       -0.46509222610433
H           72.10891173387314        8.18590539477353        0.61019136573994
H           73.10666528767756        8.47135160817129        2.87130301579856
H           75.10518236515153        5.73410227186405        5.81882473897816
H           74.08314840122110        4.30080367591512        2.95928691940160
H           70.46408432926134        4.54800950005995        1.16478689061725
H           68.57567068289518        2.86834895267364        0.26707413406046
