140
 energy: -221.295135625998 gnorm: 0.000589442172 xtb: 6.5.1 (b24c23e)
Fe          15.51798882007633        0.19238746542165       -0.27439190825215
C           12.20122439946308        0.39889300457230       -0.85455809576126
C           12.85301804120481        1.53883539318780       -0.42983221161340
C           12.19229754715729        2.78825642506197       -0.19933056035408
C           13.09931944649225        3.60408590661115        0.38830067563020
C           14.32527000844004        2.86507733801648        0.48000828927384
N           14.16088633246547        1.60465166776265       -0.02523196322983
C           15.50012931255924        3.35990220007619        1.03806776150035
C           16.69682628014702        2.65815186244953        1.01019847437871
C           17.95284403663765        3.20890432799025        1.42558121915967
C           18.90995452099809        2.32476425153589        1.05347431986513
N           16.88723404852881        1.42391149432931        0.43499857372688
C           18.23538979036226        1.22640888808888        0.43582773454001
C           18.90130904353498        0.11643226806577       -0.10109897446413
C           18.22856202689178       -1.02170196609530       -0.56323981791425
C           18.89825315663060       -2.21356855117823       -0.98088050676824
C           17.93868538163168       -3.15184005985425       -1.17035124843423
C           16.68287395899772       -2.52133661261787       -0.89264786757776
C           15.45283826816494       -3.15628654160971       -1.01044794757572
C           15.43929827934201       -4.61029005625202       -1.29619985800458
C           14.89159127928885       -5.09697282029520       -2.48089153265422
C           14.88853521816642       -6.46297213796906       -2.74917792655140
C           14.28323418809364       -6.97389812766775       -4.02876105411581
C           15.43470607410875       -7.34095644672323       -1.82004826301031
C           15.98808499235499       -6.86920912071648       -0.63147665806644
C           16.58898812019885       -7.83457583787715        0.35415448254274
C           15.99136471258948       -5.50350191218077       -0.37712768238253
C           14.24648323214472       -2.46861758208189       -0.93680375113451
C           12.96135614586983       -3.06545614205141       -1.16168062488842
C           12.05996009779446       -2.05514639735618       -1.18848067039753
C           12.78746483673283       -0.84877806881058       -0.93299072922165
N           14.11744940467504       -1.11828524418461       -0.74849452132637
N           16.87758364994626       -1.20962762960161       -0.53871789728578
C           15.49293200652524        4.72105542415576        1.62743494902068
C           15.26153623101766        5.83582268894696        0.82361827194591
C           15.25362701060225        7.11314886776906        1.37413886945174
C           15.02588478536680        8.31391152801831        0.49615385980681
C           15.47886167012513        7.26879541035323        2.73841511075420
C           15.71494767025200        6.16507896068364        3.55287822978365
C           15.93596609329215        6.34387823911817        5.03057289284170
C           15.72332252203692        4.89280033840315        2.99120969867593
H           11.14320463167961        0.47552478458979       -1.07939242412283
H           11.15946887800485        2.98739862417659       -0.43764064744964
H           12.96031776804003        4.61526741477176        0.73473495994946
H           18.07711343440450        4.16347819628867        1.91044791110520
H           19.97825327858562        2.39477674384105        1.18127468158266
H           19.96613177884464       -2.31039559389634       -1.09339571541889
H           18.05787507673835       -4.17450807528842       -1.48935346475736
H           14.48451271949210       -4.40217506017951       -3.20729724312394
H           14.58769738072727       -8.00231663920298       -4.22229354607538
H           13.19339084539109       -6.94459088590871       -3.96270577385284
H           14.58580914303958       -6.35186932506448       -4.87205445733307
H           15.43373803272464       -8.40708446394718       -2.02256006974251
H           16.79717426036446       -7.34365356623639        1.30460454582385
H           15.91295616952998       -8.67217357991711        0.53139645075310
H           17.52554180002377       -8.23542439872678       -0.03930419453939
H           16.41082314382110       -5.12267813117753        0.54759795633464
H           12.78447688854840       -4.12112502466769       -1.28868367217926
H           10.99425926378458       -2.10492240466929       -1.34674653215924
H           15.10370704615585        5.70311097744023       -0.24105507481484
H           14.56710911062803        9.12642532675755        1.05986782995153
H           14.38258765197742        8.06121012377637       -0.34699744443981
H           15.97954973575696        8.67058516491829        0.10034829070823
H           15.47196369799600        8.26328362926363        3.17266929358773
H           14.97602945944746        6.34103857261761        5.55204570815862
H           16.43066619722102        7.29324119006900        5.23701887098404
H           16.54353804689721        5.53341405014312        5.43348941567381
H           15.89550352417204        4.02343739121369        3.61620436808463
Fe          28.87773840071617        0.22412435121049       -0.26789622488250
C           32.18386983670373        0.75756028548897       -0.64564808108081
C           31.53635019470906        0.01714168217437       -1.61387427923029
C           32.19939693428545       -0.55490836523983       -2.74695727042704
C           31.30018081707529       -1.36473825375408       -3.35467065424189
C           30.07525939612006       -1.25369566479912       -2.61665020399030
N           30.23395644486183       -0.40611698641139       -1.55489789746418
C           28.90388741720662       -1.93664081123307       -2.93065733047408
C           27.70576821322548       -1.71122454962437       -2.26767402912451
C           26.44992242229744       -2.26296537620524       -2.68233275432767
C           25.49129067619171       -1.65113701247220       -1.94546769749683
N           27.51341118433167       -0.80823977284067       -1.24877111006313
C           26.16468755833321       -0.74945707859549       -1.06437664580060
C           25.49803851237967        0.07444818482055       -0.14743399122275
C           26.16987670364513        0.82802012688939        0.82354794472218
C           25.49892880096261        1.54764581243890        1.86073919338734
C           26.45747942805012        1.97962969441812        2.71606250897663
C           27.71418714715419        1.54740925358151        2.18162513891398
C           28.94439158942063        1.84345200716528        2.75515640329647
C           28.95808518182145        2.51476405549173        4.07642020288500
C           29.48411573110094        3.79699810320108        4.21581885486713
C           29.48580864874380        4.42916770139712        5.45614073027366
C           30.06581888919359        5.81113578853648        5.59209082747799
C           28.96076411966389        3.76604852938073        6.55923946422823
C           28.42937637957642        2.48393049120037        6.43536097151669
C           27.85156592953145        1.79036148942092        7.63936444569139
C           28.42652685283861        1.86547702688734        5.19138384305514
C           30.14918203762674        1.60154092708186        2.10419462486662
C           31.43285240241910        2.00131876185901        2.60466014430653
C           32.32905110193326        1.76397150430076        1.61741449443632
C           31.60086140420871        1.17475920431666        0.53459768541345
N           30.27541138595852        1.05202750272353        0.85612710694317
N           27.52051320575709        0.85521498977030        1.01245658337067
C           28.91234540525301       -2.88817443631626       -4.06841037650678
C           29.14664906307804       -2.43368626261902       -5.36502725556798
C           29.15174621023419       -3.32304332025984       -6.43444231984381
C           29.38240923439100       -2.82180277260343       -7.83448036901484
C           28.91966866170658       -4.67451024038783       -6.19812359307468
C           28.68011833658186       -5.14240496299414       -4.90937669734843
C           28.44919016282584       -6.60899631864080       -4.66395751918202
C           28.67579878672460       -4.24391614131760       -3.84774220275087
H           33.23816381757749        0.96616551446584       -0.78994479074946
H           33.22887408380773       -0.37102397930326       -3.01070795828048
H           31.44381859932071       -1.98673250518895       -4.22318248640446
H           26.32677294383411       -2.99963132128362       -3.45945303328539
H           24.42272124607510       -1.79026896186146       -1.98105250306374
H           24.43090645894602        1.68117153519653        1.92312000008364
H           26.33738286723713        2.55768136184751        3.61786951368483
H           29.87480364374411        4.31255655905904        3.34537659133999
H           29.77185025591476        6.26748673636321        6.53714040122984
H           31.15640096340302        5.76251987400058        5.55797855239526
H           29.73199706990650        6.44981022873835        4.77333999951615
H           28.96081703964700        4.25259110918009        7.52925391267560
H           27.65301448286893        0.73990331349670        7.42779156483392
H           28.53781053997833        1.85529989382881        8.48489630682545
H           26.91313970034834        2.26706407406038        7.93042337113211
H           28.02333409882304        0.86476267802503        5.08143906663602
H           31.61217069856960        2.41648930983883        3.58311023324792
H           33.39205845848288        1.94626788450519        1.61239899440262
H           29.30796640314868       -1.37552499434747       -5.53914938217904
H           29.83659893135279       -3.59503732345229       -8.45436125236005
H           30.03084032057207       -1.94539345729440       -7.83068317687341
H           28.43035985504161       -2.53750936546118       -8.28849430014702
H           28.92326309990406       -5.37218763231595       -7.02930644076494
H           29.40484552802456       -7.11366984352689       -4.50461643220788
H           27.95970838101180       -7.07323903033719       -5.52041498864645
H           27.83250474987135       -6.76235225018900       -3.77822363609523
H           28.50112470717389       -4.59692395334652       -2.83732850488528
C           21.52620945480725        0.11489711248003       -0.14232040612218
C           20.30263641767673        0.11875334632567       -0.11650652796919
C           22.87313805464985        0.10439573409919       -0.15251769415092
C           24.09676471382066        0.08737747370869       -0.15317382317235
