126
 energy: -248.989542068708 gnorm: 0.000305206850 xtb: 6.5.1 (b24c23e)
Co          17.30264148814378        0.08157378849399        0.03593832137347
C           13.93647660157735        0.12370373062866        0.27419663340502
C           14.58906821791324        1.30609693846228       -0.00197010746118
C           13.92006120119974        2.55245203233304       -0.21942541178470
C           14.88231399257216        3.50125523468335       -0.29438581733817
C           16.13896602442128        2.83317522093665       -0.11872607552695
N           15.94936433976537        1.48088422126096        0.01541871493032
C           17.34416882854741        3.49050517904510        0.08760497279033
C           17.35888210788584        4.97464760410453        0.09603471862485
C           17.08239884163699        5.68213830291849       -1.07310935377359
C           17.09782232933802        7.07227474547858       -1.06484234582707
O           16.83853926606920        7.77164798237863       -2.19632265739881
C           17.38209632159281        7.75736560063132        0.11762355003994
O           17.38611778445134        9.12749975121445        0.09636503779697
C           17.65310186038820        7.04912516998242        1.28557508772752
O           17.91816107535815        7.79079661991284        2.40652027687721
C           17.64651511105636        5.65958138699956        1.27899412453217
C           18.52857271351715        2.80364942726008        0.30637243834033
C           19.79016488844929        3.43867951560612        0.54151154478885
C           20.72876433833709        2.46253902174390        0.52413367822014
N           18.69285140082469        1.44219230594588        0.18256925990534
C           20.04241188598518        1.23755749567737        0.26171031143313
C           20.69766140610725        0.03501585388356       -0.01101831568073
C           19.99757022418424       -1.14192267013489       -0.28724035959152
C           20.63377066260960       -2.37171979454996       -0.63675380602878
C           19.66398413796692       -3.31690591206050       -0.66852541781973
C           18.43475703151016       -2.65926202449210       -0.34158237654315
N           18.64834079149884       -1.31206445872480       -0.15344150829836
C           17.24912222300129       -3.32566637093843       -0.07003997353356
C           17.22522988805831       -4.80737874952078       -0.15036987289032
C           17.02379840371357       -5.56695670577221        1.00148007915757
C           17.01198595261953       -6.95507349055961        0.92615815948510
O           16.82537344985962       -7.70459465132002        2.03980090080559
C           17.19495054955489       -7.58615836044692       -0.30531515879140
O           17.17719896111101       -8.95562813678879       -0.34876021820408
C           17.39136554076878       -6.82602446528586       -1.45547135272322
O           17.56030554235972       -7.51607583078117       -2.62685044306154
C           17.41107160800507       -5.43849872233736       -1.38262112882051
C           16.08918545103039       -2.65001340255600        0.28344365374965
C           14.84247681668064       -3.29419376415413        0.57840542286478
C           13.91178128370528       -2.31765416864035        0.68506301847708
C           14.58716318041830       -1.07941804099356        0.44101876103700
N           15.92997567351766       -1.28763355341071        0.24784582762858
H           12.85539095735070        0.13799728597151        0.34786629051876
H           12.85006789906354        2.66727060380395       -0.28968770174760
H           14.76473530509409        4.56377754183903       -0.43213972974555
H           16.87237724577836        5.15977487763802       -1.99744093903198
H           16.89600408239371        8.71906189854242       -1.98924623415009
H           17.59950967916777        9.43946416579819        0.99022605185577
H           18.09258215873932        7.21826048278536        3.16503733067140
H           17.84506378820631        5.11412729762374        2.19403531673976
H           19.93160434401968        4.49798338941349        0.68108726872819
H           21.79450457866740        2.55178663598726        0.65770348074041
H           21.68936295173848       -2.48478866655572       -0.82282483874581
H           19.76569875474319       -4.37025187934634       -0.87278024950387
H           16.89585527302029       -5.08770945375496        1.96341874065951
H           16.85025249393989       -8.64162187060004        1.78464187595955
H           17.31908270565996       -9.22726340578151       -1.26952380251346
H           17.68757203782331       -6.90971095514612       -3.36834301727674
H           17.55280149501402       -4.85221467044573       -2.28291139067969
H           14.70714171783961       -4.35951951977985        0.67042097851593
H           12.85597905394154       -2.40814432350905        0.88524422638617
Co          28.12287849611927       -0.08512773553095        0.02652845886989
C           31.48903820729071       -0.15432199396285        0.25844236382870
C           30.83633627018684       -1.29772346818040       -0.14998362283463
C           31.50522333057184       -2.51145155361478       -0.50735007872863
C           30.54287854048287       -3.44554181144968       -0.68940788789688
C           29.28629068897923       -2.80156477222629       -0.43912385600224
N           29.47602310299591       -1.47321607057162       -0.15254300012566
C           28.08103422570721       -3.47793894653316       -0.30857324601220
C           28.06617453530390       -4.95346890137788       -0.46843002328412
C           28.34257931465316       -5.52390533215444       -1.71023833405535
C           28.32700837109626       -6.90601792514980       -1.85959835425370
O           28.58621482765112       -7.47265646883798       -3.06306492753145
C           28.04266023419685       -7.72069823120873       -0.76240697203767
O           28.03848489185282       -9.07959162794074       -0.93883700671428
C           27.77173634996105       -7.14938306802331        0.47830178217691
O           27.50659712484740       -8.01330633970724        1.50795661453906
C           27.77847641103329       -5.76805012976995        0.62927126332942
C           26.89670861915104       -2.82019929859563       -0.01328287476214
C           25.63506665527158       -3.47767130429921        0.14844985870617
C           24.69655695386785       -2.50576580141364        0.24183288986082
N           26.73255054646010       -1.45346694730953        0.01799085401718
C           25.38301201683123       -1.25899824110930        0.11987149968158
C           24.72786408053967       -0.03323893822839       -0.01481058760829
C           25.42805262550688        1.16736687005060       -0.15582943025741
C           24.79195103683878        2.42891853517254       -0.36361646409611
C           25.76182287976963        3.37152675155120       -0.28805929461399
C           26.99100314152664        2.68094525487073       -0.03785920877260
N           26.77730379798719        1.32112298944195       -0.00366877671348
C           28.17671991840612        3.31216778168328        0.30737591612501
C           28.20076037014758        4.79343694252914        0.39549594484219
C           28.40226168937770        5.41754925206909        1.62601256147335
C           28.41422239283419        6.80525718134028        1.70850287873243
O           28.60090321776266        7.42371068901913        2.89991919050170
C           28.23134137502415        7.57186801748900        0.55649002454737
O           28.24924760459373        8.93743620162976        0.66853749546614
C           28.03485417034232        6.94701023804556       -0.67240656823127
O           27.86600446867541        7.76539633825802       -1.75802905141640
C           28.01499377716112        5.56016988818594       -0.75728462340710
C           29.33660674066831        2.60069876388383        0.58193672670423
C           30.58338147395636        3.20718334559329        0.94797290928016
C           31.51397490444265        2.22475137028380        0.94329753254367
C           30.83846792989166        1.02220931778060        0.56052797959117
N           29.49568044828752        1.25111446259128        0.39217856085782
H           32.57012060957334       -0.17698202363998        0.33002921453818
H           32.57520632907893       -2.61767046527658       -0.59017218430553
H           30.66035546763528       -4.48560483367811       -0.94674612668942
H           28.55265153875505       -4.90015723985559       -2.56940640194683
H           28.52864978707289       -8.43743066640787       -2.96471237777115
H           27.82505905504580       -9.49084290004543       -0.08609601072599
H           27.33222813061815       -7.53041884287537        2.32648194275525
H           27.57999590576789       -5.32981353632222        1.60024825525868
H           25.49353074104501       -4.54595502882386        0.16711676149515
H           23.63081625423191       -2.60948269132401        0.36449877862223
H           23.73635803315235        2.56244654308252       -0.53559522324206
H           25.66020149889270        4.44124969375921       -0.37154418847921
H           28.53014853430139        4.83235040161211        2.52743381975946
H           28.57612848715812        8.38362200379149        2.75260413567917
H           28.10740839388867        9.31169431193612       -0.21550713561215
H           27.73869588595802        7.24699204372996       -2.56347049275560
H           27.87320093082451        5.07971503303517       -1.71822028624193
H           30.71882388401992        4.25520896167667        1.16010115406218
H           32.56978377751075        2.29186673893286        1.15244496639485
C           22.10429291552707        0.01107165218818       -0.02135003577543
C           23.32123416189639       -0.00818973049245       -0.02242213171761
