122
 energy: -218.629147683099 gnorm: 0.000773899334 xtb: 6.5.1 (b24c23e)
Fe          14.88929370857291        0.06218037996379        0.00392278400877
C           11.48954153491529        0.12063919934194       -0.00347162679799
C           12.14401968204182        0.90392188690270        0.92428620200751
C           11.47241431793883        1.73013299472321        1.88160796873342
C           12.43660837914384        2.38884548098819        2.56818700244639
C           13.69082942554873        1.96351824084071        2.02419950109957
N           13.50468937963407        1.04269353124213        1.03616465938101
C           14.92260335310915        2.48553494790181        2.42829461802332
C           14.93581113435347        3.48420548506363        3.42554635871801
C           14.94913553465126        4.34764592161330        4.27822877845393
C           14.96492335600217        5.35518001557461        5.26981011642718
C           16.16052376275583        5.97239277058121        5.65638714929444
C           16.12305504999606        6.95467287738757        6.62974695819630
N           14.99898489770087        7.34644181721576        7.22435527397846
C           13.85865428096526        6.76353736074975        6.86367340259111
C           13.78732127556276        5.77270591276872        5.90062522656808
C           16.13864983655626        2.07180375329070        1.88437958191841
C           17.40124564430514        2.61868721667983        2.27260564661836
C           18.34784472638136        1.93618735806698        1.58269779117746
N           16.30587703115732        1.07758156445911        0.95782699916989
C           17.65603975947147        0.97587056866941        0.78139617394315
C           18.31008894933433        0.02754384888701       -0.01427489655859
C           17.62954541731439       -0.91606772940431       -0.79330922843150
C           18.29416672404176       -1.89722886977566       -1.59221620134172
C           17.32602643406124       -2.57986202807746       -2.25167663446656
C           16.07820746113050       -2.00815006857651       -1.85188217539814
N           16.27546660017401       -1.00251598918330       -0.94334487183324
C           14.84863401019906       -2.40295895224248       -2.37862055323507
C           14.82534936024899       -3.42215587632308       -3.35467957759668
C           14.79524855121288       -4.29958015490611       -4.19253223745784
C           14.75298591521032       -5.32078646485597       -5.16917238093888
C           15.91524167678146       -5.98363929587541       -5.58018765834501
C           15.81662309826858       -6.97516438422240       -6.54006382476892
N           14.66372301158814       -7.33453955183512       -7.09872079125209
C           13.55425349751898       -6.70934701757992       -6.71323015106080
C           13.54418825589533       -5.70571862717253       -5.76109599909371
C           13.63370566989176       -1.83315573452977       -1.98706971626583
C           12.36849730107971       -2.21559750605560       -2.53753048287227
C           11.42556134172500       -1.50462976761777       -1.87397065079968
C           12.12083054896352       -0.69356142298031       -0.92056388632634
N           13.47551300864562       -0.89119631636739       -1.01455028878655
H           10.40546714034583        0.14290016414223       -0.00918096158010
H           10.40160776563783        1.78798974602336        1.99548826214881
H           12.32669778551328        3.10484573038918        3.36687965225103
H           17.09814956312362        5.68307620772517        5.19739565868580
H           17.03494754808282        7.45142530266291        6.94841450104379
H           12.96085240744014        7.10691764858530        7.36943582097365
H           12.83702008103996        5.32452384281765        5.63688652637568
H           17.53133334092456        3.41842437195347        2.98383592827280
H           19.41886852713560        2.05622796279038        1.60869686449760
H           19.36296412518368       -2.03114260716241       -1.63622316334174
H           17.43214399816983       -3.39251279491253       -2.95216840095890
H           16.87478837298108       -5.72202082304425       -5.15094172814115
H           16.70168484324031       -7.50643246531465       -6.87801154474151
H           12.63144685208258       -7.02763943887047       -7.18958836644651
H           12.61761449581908       -5.22236160320162       -5.47584010166874
H           12.23748824714410       -2.93860729153696       -3.32666391782442
H           10.35469189085075       -1.51858026202246       -2.00030853858605
Fe          30.89683623516839       -0.03571626730200       -0.05139298181295
C           34.29653905621358       -0.05931601768512       -0.10562446506874
C           33.64211007877812       -1.25769882147387       -0.30114941817454
C           34.31373913151762       -2.50341819378744       -0.51850271092934
C           33.34955437970449       -3.43089202221650       -0.73092600564840
C           32.09530469816856       -2.74577787103503       -0.64509146721064
N           32.28143771737321       -1.42505860938202       -0.36249215537156
C           30.86352160501165       -3.36049051574836       -0.88574643186268
C           30.85014712223434       -4.72851265545577       -1.23267585578482
C           30.83657375145967       -5.90338664718301       -1.53649815778210
C           30.81975792045453       -7.27202590123789       -1.89015720626040
C           29.62415638473787       -7.92027813598658       -2.22197740939916
C           29.66143061572248       -9.25989011492250       -2.56523468729871
N           30.78533795201846       -9.97155752170593       -2.59584196659669
C           31.92579525471420       -9.36293162762588       -2.28094069372528
C           31.99732534572986       -8.02781549216339       -1.92506393159070
C           29.64754684807868       -2.68117629422819       -0.81035173281358
C           28.38500312259775       -3.29497635471702       -1.08085858257480
C           27.43840618106459       -2.35248706647470       -0.84962267251176
N           29.48032862403561       -1.37559104861705       -0.43302567428298
C           28.13018967050875       -1.17187791932436       -0.43672856946681
C           27.47605909627732       -0.00228550346743       -0.03138397894656
C           28.15650035218563        1.15075997394271        0.37838165319675
C           27.49185138293729        2.34010703370152        0.81002412955978
C           28.46000072807062        3.25639428180539        1.05758758534156
C           29.70782246564771        2.61972290008689        0.77247645951174
N           29.51059802217618        1.32377989232474        0.37590852362780
C           30.93738678813142        3.27442558879800        0.84110093943825
C           30.96035150407440        4.63534791102664        1.21439876785492
C           30.99066920253309        5.80468919145264        1.53781344078839
C           31.03232120833055        7.16732888556397        1.91181286084635
C           29.86987956726042        7.85999852654653        2.26974416689503
C           29.96817843186916        9.19266209670314        2.62828532591758
N           31.12094064183140        9.85679834297876        2.65017099550514
C           32.23053983293080        9.20542924989507        2.31120307440188
C           32.24092546477049        7.87323105341470        1.93831278428655
C           32.15236784925956        2.64584793913995        0.55342671196300
C           33.41759804179219        3.31455957485934        0.59902308691829
C           34.36050046434655        2.38020660563124        0.32913166455945
C           33.66523215281555        1.14564775880093        0.12251105381519
N           32.31056654218844        1.32771200247921        0.24417613254189
H           35.38061027241499       -0.06574087168378       -0.12808426129606
H           35.38455389340390       -2.63079493171086       -0.50980045338988
H           33.45947722713873       -4.48394776576104       -0.93498019896434
H           28.68671176243294       -7.37760293498120       -2.20996043433229
H           28.74945159652111       -9.78825808048780       -2.82790500595119
H           32.82349434590994       -9.97340663764002       -2.31583270054003
H           32.94778125180586       -7.57140658856945       -1.67630787612855
H           28.25490778158390       -4.31592194847766       -1.40193676482669
H           26.36740522345013       -2.43636016334576       -0.93957039977927
H           26.42303120353067        2.44671400853370        0.90202434918696
H           28.35384783888171        4.27472250781271        1.39535809482211
H           28.91045965382837        7.35709612619776        2.26548834942218
H           29.08299002339906        9.75509954577110        2.91094831252457
H           33.15322740229691        9.77781158796687        2.34006045541096
H           33.16762318630584        7.38060022582425        1.66982771640499
H           33.54864192238072        4.36289386205568        0.81456898876000
H           35.43135776917097        2.49583157400894        0.27603028358149
C           23.50812987731000        0.01845114753052       -0.03207795086176
C           22.27800289296875        0.01735261590089       -0.03252497062303
C           20.93663434709593        0.01930146045949       -0.03057434892936
C           19.71114481592565        0.01977906545316       -0.02536366835754
C           24.84950467324556        0.01599248031305       -0.03269928982901
C           26.07500471629094        0.01122144253995       -0.03085167689926
