114
 energy: -193.844128015776 gnorm: 0.000463168732 xtb: 6.5.1 (b24c23e)
C            9.09876164216995        0.10602858854308        0.01698707589547
C            9.70323761819503        1.33432387792763        0.25126931912621
C            9.04657060319672        2.57813458416374        0.46907753244887
C           10.00484442863942        3.53045920354098        0.67356921641929
C           11.27820156787817        2.89727323427497        0.59545989973260
N           11.04554259558785        1.57776236634035        0.32974702523361
C           12.53905970747928        3.48859460208303        0.73362564964940
C           12.56232468910239        4.93649434929569        1.04921025141702
C           13.16140857576029        5.85654697435971        0.18928858231211
C           13.15431478323395        7.20081805057540        0.52608588921879
N           12.60281383498826        7.66516087402371        1.64289356942859
C           12.03186965246329        6.79491696576776        2.46940878725522
C           11.98356038248113        5.43294973913095        2.21687780101421
C           13.75851719998592        2.82080671000167        0.59791490630054
C           15.05350231412007        3.44651800507305        0.79735930348639
C           15.97830854131153        2.48931169547250        0.57698910767003
N           13.91848889519249        1.50568094577436        0.28406293166680
C           15.24714031234807        1.27904946250844        0.25490934356222
C           15.88879689496626        0.05967432965813       -0.04221147707863
C           15.25769021867053       -1.16817413002588       -0.31824731363498
C           15.90646161526108       -2.39192706106778       -0.63151093745152
C           14.94373238372061       -3.34652745695317       -0.80930768471934
C           13.67637994829151       -2.73464702089015       -0.60266946936842
N           13.91772285496873       -1.41672238241232       -0.31816310522086
C           12.41701531872841       -3.33641009781970       -0.69689692896874
C           12.39480938811475       -4.78923817013452       -0.98670254449749
C           12.98318864031617       -5.70922852894523       -0.11918293824714
C           12.93711162651373       -7.05864035995817       -0.43176282460531
N           12.35974735000675       -7.52770743461931       -1.53318737203535
C           11.79881847640041       -6.65751834147920       -2.36680423392380
C           11.78807873553120       -5.29071879870913       -2.13781353208358
C           11.19694085884733       -2.67116398329622       -0.53897419408509
C            9.89600671471466       -3.31954827177220       -0.59948043880251
C            8.97779722019963       -2.35203252416460       -0.40421424758191
C            9.71670899722612       -1.11633524115411       -0.21177586396361
N           11.04992724459719       -1.34810384110926       -0.29136885988805
H            8.01340619766936        0.11072111236434        0.01891291850480
H            7.97685295785477        2.71389625049293        0.46226925461096
H            9.84951365548466        4.58181746176782        0.85365240304095
H           11.77366987577730        0.88213154578556        0.20679665392895
H           13.61262761977662        5.52518020665072       -0.73835808461323
H           13.61209129094451        7.93616561438824       -0.12922342678665
H           11.59214324378458        7.20395498895194        3.37444623097510
H           11.51817590013463        4.75972057416446        2.92711049290003
H           15.21175741980696        4.47433632631421        1.08094351333471
H           17.05253148218637        2.56691380507945        0.62929123684843
H           16.97431054184148       -2.51522877206559       -0.71321668278236
H           15.09430221283014       -4.38121077283963       -1.07056954080308
H           13.19293676308037       -0.72963458579710       -0.13867918628637
H           13.45461714170651       -5.37410110352687        0.79710533227356
H           13.38348618151832       -7.79385826692859        0.23144224219786
H           11.33801787722999       -7.07082412607480       -3.25923768666304
H           11.32990292186419       -4.61768458375925       -2.85262599248386
H            9.73322839749683       -4.37337268875482       -0.75843811378501
H            7.90266246889068       -2.43630076461650       -0.37820787448441
C           29.28387831152552       -0.10124186778983       -0.03339015757204
C           28.67937172441853       -1.30034721890247       -0.38791803113705
C           29.33599568277697       -2.50574195258385       -0.76421684451183
C           28.37769304680207       -3.44595177453780       -1.01853328034950
C           27.10435163623958       -2.84734797962668       -0.79769490793658
N           27.33706415280633       -1.55269752762869       -0.42949704238426
C           25.84349936873814       -3.43633804269381       -0.94545595451567
C           25.82024199743206       -4.86799301288846       -1.32806160173402
C           25.22088896936612       -5.29202903469282       -2.51374630663210
C           25.22783397341702       -6.64128167497073       -2.82999243000297
N           25.77956536759909       -7.56555449091559       -2.05002915520667
C           26.35083945934978       -7.17048845163285       -0.91689251633668
C           26.39920753324423       -5.84411006654603       -0.51757730013366
C           24.62400053232235       -2.78064618201308       -0.76008109861796
C           23.32906861650143       -3.42834445735199       -0.86925002644951
C           22.40418108093351       -2.47655255340004       -0.62685367144443
N           24.46392083066676       -1.46783089056393       -0.43678142791495
C           23.13524714341851       -1.25314353958016       -0.35875673120522
C           22.49355570826654       -0.03309478761887       -0.06448556928558
C           23.12475372241507        1.18492864175000        0.25189578527294
C           22.47603194364622        2.41651558383621        0.53292239028319
C           23.43877887914173        3.34649427566417        0.81217728002875
C           24.70608148897273        2.70771374625546        0.71630878505031
N           24.46470417149853        1.40574404611222        0.36598285827252
C           25.96543097961548        3.28567140557407        0.90859772948189
C           25.98760335892012        4.70986645671337        1.31646308145189
C           25.39884948161196        5.13032652148292        2.50883358716841
C           25.44507534081238        6.47299231168046        2.84918385083321
N           26.02288218596101        7.39441179195609        2.08521591093542
C           26.58408236867921        7.00270019912060        0.94574375374558
C           26.59473756786235        5.68285148051283        0.52315886070604
C           27.18552747095226        2.62193427609391        0.74468102633504
C           28.48639900152794        3.22600147873573        0.98825843095792
C           29.40468768706168        2.27658405089327        0.71867414445467
C           28.66587841719325        1.09004326561807        0.32339706661056
N           27.33264837417144        1.33245514555789        0.35864889086596
H           30.36923247913042       -0.10628054003302       -0.03385907852899
H           30.40570217909356       -2.62329997894356       -0.83264605245729
H           28.53299077017565       -4.46300263055306       -1.34009620083891
H           26.60898673097964       -0.87800683713266       -0.22001486516835
H           24.76963274813396       -4.57257230030256       -3.18655456067411
H           24.77004090263598       -6.99479139374405       -3.74932050254939
H           26.79055634062451       -7.94862961500621       -0.29971760815785
H           26.86472927470586       -5.57094626802255        0.42206087097648
H           23.17090143994515       -4.47194429506853       -1.08778179987270
H           21.32997277705742       -2.56961637079886       -0.61587568065456
H           21.40820735458916        2.56367495623245        0.51625239767026
H           23.28824778034120        4.38604711404150        1.05335154977550
H           25.18942898594504        0.71258626324363        0.21129153514478
H           24.92704348089643        4.41274826308215        3.16960809138345
H           24.99848889998460        6.82279118731909        3.77537834463039
H           27.04520420194609        7.77882718572705        0.34193326761434
H           27.05317272561898        5.41196722714980       -0.42040624447676
H           28.64906765308185        4.23553457923690        1.32985995229180
H           30.47980809826697        2.33960542642702        0.78060701538455
C           18.51655505148810        0.02693816274146       -0.07112755261253
C           17.29468750034014        0.05004513397128       -0.05825435464949
C           19.86572490405543        0.00745604871941       -0.07697948601042
C           21.08769316424472       -0.01651262564323       -0.07588733319398
