215
 energy: -348.458219957166 gnorm: 0.000460003593 xtb: 6.5.1 (b24c23e)
Cu          28.37105847988819        0.05942232855756       -0.11316543348315
C           24.97235122555593        0.17285515015065       -0.32479781104312
C           25.61489098679668        1.34753324583060        0.03690854489695
C           24.94879200349279        2.57598975132143        0.36287735345524
C           25.91266394416196        3.47690128427320        0.67691919643787
C           27.17798244417552        2.80979565740513        0.53358306866451
N           26.96527459357549        1.51567406696641        0.15359393587007
C           28.42514478620713        3.39424756849865        0.76430031894317
C           29.65142708808762        2.73737427107954        0.65105453734402
C           30.93374242225979        3.35873738954554        0.82460410748483
C           31.87216176842263        2.40005189464924        0.61887804591293
N           29.82992811713912        1.41671498632631        0.33300127388757
C           31.17128489233758        1.18859019942164        0.31557361814494
C           31.79673660912001       -0.04176753409933        0.04638595804471
C           31.12723255483320       -1.23974999624782       -0.25964977234693
C           31.78316765484351       -2.48330500209367       -0.53205583556174
C           30.81163273602104       -3.39206511071996       -0.80092254582805
C           29.55370490933848       -2.70920229257518       -0.69109227439139
C           28.30740486211946       -3.29072073675256       -0.92839705336104
C           28.28109429048389       -4.73754226421590       -1.26464653010459
C           27.83699299991563       -5.16297916648386       -2.51440047451782
C           27.81576352353705       -6.51781046947661       -2.83324056735157
C           27.32369361582610       -6.96594268652241       -4.18307123191490
C           28.23577340876595       -7.44685205878333       -1.88787457813174
C           28.67923608223084       -7.03696003517869       -0.63262722849145
C           29.14213168329489       -8.05652729204876        0.37287801192642
C           28.70301687585166       -5.68132143040822       -0.32819537666793
C           27.08470597550073       -2.61815639164411       -0.87511551655425
C           25.79889838418330       -3.22164240020830       -1.09700991818749
C           24.86807930376565       -2.24875649165392       -0.93486810102002
C           25.57493568467990       -1.04512491207550       -0.60199917894692
N           26.91703260006230       -1.29711727965913       -0.57316525440400
N           29.77965943837259       -1.39848735122994       -0.36215777428435
C           28.45114304836030        4.82503491637531        1.16178247041392
C           27.98299049650791        5.80876774530020        0.29193136811157
C           28.00972359358779        7.14891610452331        0.66204845393050
C           27.52980249434829        8.21174549485741       -0.28924347693456
C           28.50542979693576        7.50144791704872        1.91413127723585
C           28.97450882472301        6.53095166438410        2.79397069184592
C           29.48601964133816        6.91923140174385        4.15497100064523
C           28.94663225351417        5.19404190798826        2.41125601548009
H           23.88916222707372        0.20611718136739       -0.38177993898632
H           23.87906991796553        2.71482984987999        0.35677493199400
H           25.78549990742529        4.50130365684616        0.98825043715798
H           31.09127251875308        4.39894716143777        1.05963566589469
H           32.94528778698022        2.49587119856003        0.66304838333969
H           32.85126697122208       -2.63104804261485       -0.52079961419378
H           30.93171892225599       -4.43063901717723       -1.06371428216722
H           27.52264406180791       -4.42855249596747       -3.24797366812807
H           27.67875010877440       -7.97020055463659       -4.41427416801011
H           26.23145768805353       -6.97767175310274       -4.19550134258965
H           27.66230341385425       -6.28339410737878       -4.96326214897415
H           28.21928283119622       -8.50465484131474       -2.12967459881798
H           29.22380583370024       -7.61613052300253        1.36648270806680
H           28.44759465006768       -8.89651234890670        0.41593764559580
H           30.12231739626410       -8.44420481672520        0.08684306439999
H           29.03671157362485       -5.34894025347710        0.64875355853292
H           25.63633306512085       -4.26034501643850       -1.33609021523412
H           23.79569893459072       -2.32692978308633       -1.02191558895984
H           27.61158263680908        5.52278512233014       -0.68609610057403
H           27.03361632049113        9.01883159094417        0.25059546911117
H           26.83562352603531        7.79620919034519       -1.01974103413904
H           28.37875789636759        8.63766011943177       -0.82891048317262
H           28.52681171834438        8.54619343338375        2.20694525325758
H           28.66234114311148        6.92660554899772        4.87257107699045
H           29.92688118754745        7.91610813794405        4.13465692698568
H           30.23466587499777        6.20851253738036        4.50556441623491
H           29.29889713039403        4.42704763618637        3.09237385057467
Cu          60.44345851865878        0.06512866703688       -0.07273973594329
C           63.83922286903467        0.24928711394732       -0.27176244908976
C           63.19028227261398       -0.43191096515388       -1.29074137567473
C           63.84924567930180       -1.08713503393902       -2.38422293423373
C           62.88099888430653       -1.64959881237571       -3.14931418563990
C           61.61993743052444       -1.33275567090217       -2.53606802217973
N           61.83969950940267       -0.60026312467576       -1.40488618903716
C           60.37065585524165       -1.73027206484265       -3.01693794664343
C           59.14893497776805       -1.44405711628665       -2.40580545613138
C           57.86327117809795       -1.79822823480779       -2.93740340623972
C           56.93063835720584       -1.32838622978192       -2.07079566136519
N           58.97823081337421       -0.75914839715068       -1.23181284981537
C           57.63821625663913       -0.68201937322482       -1.00633667246316
C           57.02024641915923       -0.06095439047824        0.09274360453736
C           57.69494669407401        0.58355833179373        1.14351819315376
C           57.04538023665659        1.20621753892672        2.25787426220544
C           58.02181896522494        1.72069491935519        3.04754483379334
C           59.27643294816887        1.41372578737354        2.42071524472201
C           60.52614239864221        1.80214098975829        2.90582429831528
C           60.56019056574809        2.53385091727083        4.19835926904417
C           61.00891679159210        3.85140888769670        4.25165501982999
C           61.03733543571270        4.53992306796084        5.46110855193136
C           61.53446503782601        5.95967387995980        5.50783209847055
C           60.61974892453829        3.89701982510617        6.62109831192796
C           60.17154784275239        2.57869515313166        6.58433045975599
C           59.71078751848296        1.90396001552994        7.84816897756505
C           60.14063106048985        1.90376096627184        5.36998424252335
C           61.74478310022755        1.55813340302378        2.26910021218330
C           63.03418101962594        1.94210001900979        2.77598780625847
C           63.95855151431687        1.51460730115575        1.88047389028943
C           63.24436425365813        0.85531624110682        0.82473232479881
N           61.90430129357939        0.89588300947261        1.08565276016578
N           59.04372717645352        0.72298068524413        1.26086914362202
C           60.33664566686690       -2.51463365647958       -4.27788961230040
C           60.78088918583919       -1.94892081819050       -5.47212092855393
C           60.74548360463049       -2.67892913844243       -6.65511789792506
C           61.19831412717809       -2.05663098164487       -7.94838762410804
C           60.26566814051176       -3.98547879900117       -6.63656530818161
C           59.82078181320239       -4.56460688131570       -5.45221377237895
C           59.32653891757501       -5.98598842809068       -5.43815793883603
C           59.85668892596495       -3.82320956243271       -4.27586122756642
H           64.92169148565056        0.29970949313985       -0.33007100148223
H           64.91767392857911       -1.11302735361828       -2.53061635284519
H           63.00237072566999       -2.23679191373262       -4.04540950800825
H           57.69985832363807       -2.32607446409695       -3.86302476558452
H           55.85721172102839       -1.40415584197608       -2.13950352632489
H           55.97790133811647        1.24214258446846        2.40625460756891
H           57.90747886567383        2.27169214524330        3.96704385858346
H           61.32112215222504        4.34663337833373        3.33864408754960
H           61.18193498208613        6.46728177587012        6.40567661848650
H           62.62675795394349        5.97099916252332        5.51478569599820
H           61.19718131857207        6.51564306070373        4.63241686747865
H           60.64187752459870        4.42780507330077        7.56739082147878
H           59.63395315458695        0.82563911688286        7.70965632319931
H           60.40358637758060        2.10561346731417        8.66618059303858
H           58.72855572815622        2.28429931757434        8.13707702417895
H           59.80310944795028        0.87389745212329        5.32856944568211
H           63.20327556497853        2.46385399147743        3.70425373613656
H           65.03111570526669        1.62207815431690        1.92233839274986
H           61.14024848648038       -0.92563541346093       -5.47596669442243
H           61.69143211827954       -2.79497516524609       -8.58138532449077
H           61.88749895995585       -1.23248450607195       -7.76403696956277
H           60.33638684011375       -1.66528224396317       -8.49365519848492
H           60.23758015710830       -4.55881631039066       -7.55753534340860
H           60.16118959330014       -6.66717337111801       -5.25700161292032
H           58.87520985601566       -6.24984974694114       -6.39484652994426
H           58.59076140608223       -6.13352253210018       -4.64736389884031
H           59.52276679961025       -4.26689477691022       -3.34423268401409
C           36.99829714798667       -0.11103741004931        0.09197269042220
C           35.77009161257637       -0.10507986007547        0.09721371992020
C           34.42544996685864       -0.09161250175492        0.09139217376045
C           33.20197099615729       -0.07257035609394        0.07545118284416
C           38.34284527549327       -0.11356934941237        0.08570436545226
C           39.56673966102793       -0.11453305244403        0.07953415652550
C           53.04491254388312       -0.08893095816952        0.16440094268376
C           51.81728563570655       -0.09157583298799        0.16253293448816
C           50.47166406145234       -0.09388689469976        0.15328289934826
C           49.24845783567054       -0.09477254635655        0.13423691480698
C           54.39068564709309       -0.08467427356322        0.15496462028721
C           55.61368535494510       -0.07736730906988        0.13602351874973
Cu          44.40744618543990       -0.10865896699454        0.06969291634298
C           40.97193454613573       -0.11343602880112        0.07070096360193
C           41.61877679805552        1.12948379710227       -0.05309097018845
C           40.94015702923852        2.38758987589833       -0.13661308367540
C           41.89521573174933        3.34351528051516       -0.26665760338047
C           43.16416807655712        2.67314482808457       -0.26806440953670
N           42.96278870144869        1.32550556542197       -0.12950305257727
C           44.40302519962550        3.30849523059469       -0.37254442258274
C           45.64412730501246        2.67323364226954       -0.29779226158382
C           46.91288029022297        3.32594593364879       -0.45333132933863
C           47.87031311611667        2.37439980009726       -0.31030974379158
N           45.84805585257348        1.33674346783773       -0.07881145457709
C           47.19334961283214        1.13371916991123       -0.07983370119836
C           47.84206394438665       -0.09898877859379        0.11107114858059
C           47.19579423050597       -1.33686681174840        0.27423423818709
C           47.87407601024089       -2.57754379982775        0.50085013973461
C           46.91937664945399       -3.53770854537641        0.59654206754424
C           45.65102236217957       -2.88897412533910        0.42224009496214
C           44.41237235334028       -3.53234174057994        0.46139202928164
C           44.41557742353286       -5.00829661092189        0.62451920459326
C           43.83030695967371       -5.59356310821341        1.74569103250130
C           43.82900604922855       -6.97612998613215        1.90192370106917
C           43.21386855282203       -7.59731527090820        3.12689520428700
C           44.41710122107223       -7.77290798266724        0.92513799497847
C           45.00381315268213       -7.20331199893698       -0.20187323791138
C           45.64798391691389       -8.07829505904873       -1.24314972461553
C           45.00281643504297       -5.82064527656547       -0.34521180806880
C           43.17164557249252       -2.89988181446786        0.36225411032653
C           41.90426252305007       -3.57314948020628        0.34881230245765
C           40.94656904204075       -2.61683310797572        0.24357235228612
C           41.62217750244321       -1.35590781818406        0.18100768224286
N           42.96671036933801       -1.55019544638447        0.24992752083141
N           45.85217629190689       -1.54754598000037        0.23435116268150
C           44.39974882612819        4.77903030080758       -0.57956743414836
C           44.96732560967392        5.62618436860003        0.37058001223321
C           44.96385424833393        7.00426490560231        0.18045556601298
C           45.59223727515443        7.91083464820518        1.20420526707352
C           44.39236164210701        7.53200155066829       -0.97307113047943
C           43.82184240423803        6.69902885890083       -1.93143070651346
C           43.22403308534707        7.28085229509909       -3.18399384020338
C           43.82723204247558        5.32349348950194       -1.72857539515445
H           39.87014194066899        2.51406990667101       -0.09399816227344
H           41.75753947444816        4.41012224168765       -0.34071022359105
H           47.04967343314472        4.37545992674207       -0.65793974002279
H           48.94093509417083        2.49070144572569       -0.36510449585937
H           48.94356287320576       -2.68863088193301        0.58204239250579
H           47.05704088900345       -4.59060319743145        0.78235811201146
H           43.38527430212783       -4.96157807231373        2.50648933977406
H           42.90357167487213       -8.62341503239063        2.92910985150908
H           43.94198024523735       -7.61218118479778        3.94114841689079
H           42.34783689650386       -7.02377130874339        3.45841906409080
H           44.41606123996007       -8.85198165278818        1.04035391573421
H           45.73746602941573       -7.55227112762471       -2.19358513212001
H           45.06704458910927       -8.98836134878582       -1.39639274226669
H           46.64952836360220       -8.36773393164883       -0.91691515628102
H           45.44371977945698       -5.36536772960330       -1.22531419269470
H           41.76868434407857       -4.64133761906312        0.40013680621335
H           39.87670229256960       -2.74482976686263        0.20183415651164
H           45.39691458278863        5.20422407733093        1.27260817042463
H           45.13461928056404        8.89999464170292        1.18166342503896
H           46.65830045046398        8.02410250360961        0.99398864602003
H           45.48747641072423        7.49535586996252        2.20672944189481
H           44.38776648960065        8.60633914458874       -1.12622381568827
H           42.77126438748157        8.25203245324734       -2.98238436260099
H           42.46558308144323        6.61639517582022       -3.59817590760959
H           44.00301424728930        7.42000878222536       -3.93715331009965
H           43.39601369468129        4.66321432798682       -2.47312651117444
