366
 energy: -637.844006684695 gnorm: 0.000579914857 xtb: 6.5.1 (b24c23e)
C           49.94483960144825        0.05228307392238        0.07982906442807
C           50.55179043829951        1.28438569882346        0.28534190560496
C           49.89915234003373        2.53444407547064        0.47697627637870
C           50.86103138019719        3.48968344325571        0.64773624404496
C           52.13259308602461        2.85167056561010        0.57673811391199
N           51.89517355949106        1.52641907508178        0.34776427343661
C           53.39546338901544        3.44360426382299        0.69290241493094
C           53.42003019605622        4.90173918192370        0.95871460272437
C           54.01100435224598        5.79122034171615        0.06205203678291
C           54.00007284429365        7.14709501728255        0.34873479118413
N           53.45207751506751        7.65041022733612        1.45016990040693
C           52.89028753770902        6.80924432387014        2.31224802122513
C           52.84674739737023        5.43860803489614        2.11103555673501
C           54.61408270420115        2.77035996702265        0.58034169370481
C           55.90804766693540        3.40176996448843        0.76897370706963
C           56.83391257914649        2.43756546746046        0.58793176823171
N           54.77581450544907        1.44592924927235        0.30822218810983
C           56.10465206608647        1.21831137260661        0.29661567006369
C           56.74790238637301       -0.00953161731663        0.03659077171241
C           56.11325727867288       -1.23913385911400       -0.22520136426637
C           56.75775810585093       -2.46911217620500       -0.52233346600845
C           55.79106119543719       -3.41823822541034       -0.70745645701630
C           54.52493407236712       -2.79773015088208       -0.51855774508617
N           54.77173910884691       -1.47957498836271       -0.23806491074683
C           53.26339593940394       -3.39350846934413       -0.61987360098679
C           53.23187221187696       -4.84496146301165       -0.91582172632011
C           53.81326461572394       -5.77566726531808       -0.05526450354392
C           53.75196075700880       -7.12284293499364       -0.37525335482201
N           53.16546533014449       -7.58001556120787       -1.47681652842995
C           52.61085312111052       -6.69956397343291       -2.30390288006868
C           52.61610384327623       -5.33406509606632       -2.06772034761546
C           52.04389564257345       -2.72603342941128       -0.46298618837713
C           50.74336789916120       -3.37670907425578       -0.51201734167706
C           49.82488102324407       -2.40992694245617       -0.31494612906839
C           50.56303598191484       -1.17188360760498       -0.13687427917492
N           51.89648804936930       -1.40206349532876       -0.22255669055831
H           48.85957842723329        0.05650908930000        0.08975993154796
H           48.82969245268068        2.67234142995484        0.47545624818377
H           50.70905815777179        4.54568135180195        0.80138795806035
H           52.61998374627869        0.82538214815390        0.23660556240558
H           54.45809591881309        5.42731581021844       -0.85529813608535
H           54.44946305340829        7.85951023781199       -0.33687297896631
H           52.45437917546833        7.24983026126589        3.20416549776759
H           52.38864983575596        4.79027181258246        2.84856861069907
H           56.06409526532550        4.43828303501973        1.02021970205742
H           57.90763587992529        2.51586852290331        0.64710611525050
H           57.82570571508224       -2.59960029719904       -0.59033578496657
H           55.93845793413074       -4.45508160832885       -0.96190059847575
H           54.05017011791735       -0.78574593517705       -0.07201998966818
H           54.28987058672042       -5.45098577473659        0.86207808005830
H           54.19279454886393       -7.86640444913910        0.28231308234204
H           52.14112275850958       -7.10324167225805       -3.19608862151379
H           52.16186514216525       -4.65243266388487       -2.77691109685006
H           50.58094828585426       -4.43173514711356       -0.66286682932449
H           48.75012195133107       -2.49577439780163       -0.28057560607768
C          149.88716299884973       -0.05177818839607       -0.00690126491377
C          149.28175711315220       -1.25455930778861       -0.34675423436398
C          149.93570730863647       -2.46328863208391       -0.71639516958707
C          148.97521995248812       -3.40383118595657       -0.96074834251487
C          147.70335214948645       -2.80236053884693       -0.73816660780292
N          147.93898990644422       -1.50560134385021       -0.38045188904326
C          146.44155368683980       -3.39277108485080       -0.87256931547142
C          146.41936157861244       -4.82547541531000       -1.25221450928238
C          145.81713102374582       -5.25175508402713       -2.43546302078737
C          145.83079176026283       -6.60070350251017       -2.75301624367708
N          146.39192030797264       -7.52220846100780       -1.97664895518996
C          146.96465051829216       -7.12508552908923       -0.84499985791098
C          147.00638667455036       -5.79890066194868       -0.44437172741921
C          145.22208912769202       -2.74013339077616       -0.67777689368394
C          143.92960627008938       -3.39615517868064       -0.76551487931452
C          143.00223374399297       -2.44825583335555       -0.51810341873225
N          145.05821561935991       -1.42540481314090       -0.36316643320289
C          143.72922749617865       -1.21789470673506       -0.27138868938539
C          143.08394539665196        0.00416402657681        0.01007385770864
C          143.71677481437027        1.22915665483146        0.29677101214500
C          143.07053003951930        2.46652107652015        0.55714636373649
C          144.03577046467618        3.40328409603177        0.80299323371906
C          145.30270504557805        2.76319367534775        0.70851333606238
N          145.05789290720961        1.45294523258532        0.39174307293152
C          146.56319597704410        3.34614539496941        0.87625167891312
C          146.59129642536175        4.78138005170687        1.24308560175930
C          146.00898808110290        5.24081663027572        2.42407406286122
C          146.06682436985241        6.59246345399874        2.72518587010751
N          146.65077615071317        7.48667870937832        1.93409121550000
C          147.20597742182619        7.05780092320769        0.80508533801571
C          147.20405975389997        5.72641992329163        0.42053012608309
C          147.78394277251638        2.67987079313684        0.72425949269031
C          149.08394024445550        3.29095351103118        0.95605228356271
C          150.00399245237773        2.33793430295097        0.70625315232496
C          149.26732345761781        1.14324159393620        0.33293942104614
N          147.93328810210522        1.38349154068231        0.36423474539586
H          150.97246773651716       -0.05574672590294       -0.00927612790726
H          151.00498572144912       -2.58263311635872       -0.78824087535133
H          149.12821397670891       -4.42323131222600       -1.27579746898005
H          147.21344459490189       -0.82758888521633       -0.17302013420914
H          145.35929945261927       -4.53424755081070       -3.10585345092140
H          145.37292517051551       -6.95581094370334       -3.67160242846829
H          147.41101388262462       -7.90123155725621       -0.23018228175598
H          147.47372784912156       -5.52380296147648        0.49374566431825
H          143.77550790850208       -4.44240154498772       -0.97397751765895
H          141.92892701871409       -2.54740010656330       -0.49154460047617
H          142.00245969295938        2.61256629829514        0.54966430063250
H          143.88700037543950        4.44818506935543        1.02110189670846
H          145.78040900941329        0.75595030634967        0.24413881389617
H          145.53431511671542        4.54651020444923        3.10724813508350
H          145.62545223559346        6.97258959792050        3.64187021990831
H          147.67325005780046        7.81214921365711        0.17881806396600
H          147.65843673728145        5.42468812219645       -0.51562906530266
H          149.24517951434109        4.30687948614134        1.27870830588640
H          151.07895487071613        2.40376775983928        0.76775895342091
C           58.15358648231791       -0.02116132883656        0.03228722051671
C           59.37864817034791       -0.03295352897669        0.03203674109942
C           60.72142096174642       -0.04101533166961        0.02892464567645
C           61.95264987897671       -0.04757309602539        0.02521718242732
C           63.29059556158582       -0.05396857634025        0.01825651421255
C           64.52192797232091       -0.05718638782983        0.01340197539892
C           65.86448037410017       -0.06074411236103        0.00601596607830
C           67.08982812719492       -0.06013277709707       -0.00270645625421
C           76.79372344175344       -0.04530949610858       -0.02075116633015
C           78.01938738742598       -0.03920732528437       -0.01217572151499
C           79.36201901541732       -0.03465739300037       -0.00396941484642
C           80.59377281969161       -0.02917902435370        0.00321456766463
C           81.93172474162890       -0.02049609424258        0.00852037282425
C           83.16351481980885       -0.01513524452251        0.01113645722081
C           84.50620375626087       -0.01214597089628        0.01069467819751
C           85.73194245166279       -0.00596135162122        0.00737610570891
C           95.44765775261682        0.01370951423226       -0.02212581218438
C           96.67341377263782        0.01077519743452       -0.00961210102869
C           98.01613212352449        0.00361489008087        0.00544338132368
C           99.24789075760901       -0.00584808782906        0.02035757380432
C          100.58595706275045       -0.01574770972785        0.03351803366306
C          101.81776553117490       -0.02445590776142        0.04353438138378
C          103.16058625950808       -0.03020749707651        0.04844852706566
C          104.38642506434334       -0.03105180279301        0.04856866475596
C          114.10096492038281        0.00128770656437       -0.07727413322672
C          115.32670776424925        0.00579595238461       -0.08050422769225
C          116.66936270708146        0.00653123831131       -0.08007071633453
C          117.90114429312243        0.00887998618237       -0.07439425080161
C          119.23912651254899        0.00989636456784       -0.06648384956665
C          120.47085828582061        0.00917119457578       -0.05612906512550
C          121.81338412795787        0.01187904301168       -0.04135004939804
C          123.03904608938358        0.01753446955570       -0.03173744980551
C          132.74213873655984        0.05070834691995       -0.01804201528910
C          133.96753858986801        0.05276690992616       -0.01801210745881
C          135.31004847135458        0.05025127167758       -0.01727164139958
C          136.54135916967360        0.04723003809751       -0.01337659356719
C          137.87928008697068        0.04199760363409       -0.00855565102432
C          139.11052760516688        0.03490253498329       -0.00331037390408
C          140.45324013833738        0.02655046253061        0.00155394448230
C          141.67831845401639        0.01505366517542        0.00655179641203
C           68.49433141922756       -0.06084322199202       -0.01307376242530
C           69.12649576737476       -1.29566636889254        0.23145738152398
C           68.48595436203706       -2.53006439915417        0.51091580698626
C           69.45699579326686       -3.48049886926953        0.67116250990793
C           70.71959040296736       -2.85373019858216        0.48561803304152
N           70.46899198250783       -1.53195136983886        0.23172229471909
C           71.98169298406110       -3.45540739553552        0.56558123905218
C           71.99297607071367       -4.91623593648600        0.82345950013825
C           72.57283064953924       -5.44334172402241        1.97667103345135
C           72.55164076317472       -6.81455431588531        2.17730711708506
N           72.00436278323083       -7.66456555850822        1.31444618123189
C           71.45281329949762       -7.17069916505689        0.21075126246144
C           71.41952167000383       -5.81490586252190       -0.07535440772405
C           73.20931217034747       -2.80623433501121        0.42629384725854
C           74.49144174280386       -3.48745137663298        0.46614545893390
C           75.43496825942849       -2.53722646332456        0.30296623961212
N           73.39522093760668       -1.47277979281818        0.22156257089742
C           74.72818418094144       -1.28057153927809        0.15395120599938
C           75.38911068129289       -0.04807778315424       -0.02785395693713
C           74.75632812072433        1.19603820785785       -0.22038181944308
C           75.39655601407190        2.45108284411278       -0.38613751186763
C           74.42527174790150        3.39889894861142       -0.55970515242970
C           73.16249735439229        2.74730242340307       -0.51264256951732
N           73.41362183229171        1.41859498998820       -0.29646474603886
C           71.90052386947386        3.34066113815313       -0.63927201933851
C           71.88586342355215        4.80085574466203       -0.90045218053301
C           71.30638212022548        5.69142595928589        0.00246758302936
C           71.31820084136157        7.04736948423722       -0.28406825889510
N           71.85619333463848        7.54906676670728       -1.39107405302330
C           72.40806493604396        6.70679769750654       -2.25836720585816
C           72.45031816344229        5.33595622950492       -2.05766756263428
C           70.67260806905831        2.68401705082253       -0.54170353029496
C           69.39001605630348        3.33803281507124       -0.73371916905198
C           68.44677852289389        2.39010619412061       -0.55639123240472
C           69.15431140197461        1.15877283455217       -0.26689256202021
N           70.48750687062503        1.36196474449795       -0.27446569563366
H           67.41874832655803       -2.66394513466128        0.58342579275013
H           69.31316473257560       -4.52231395266493        0.90641213226514
H           71.18320697718235       -0.82935728068923        0.07212945831887
H           73.01994539210023       -4.78692881036579        2.71357394274489
H           72.99233101833556       -7.24823851743982        3.07017282626209
H           71.01684518414636       -7.89017231163086       -0.47617027673830
H           70.96845371408760       -5.45869347928910       -0.99390789480365
H           74.62841484246786       -4.54945705498630        0.58922826953699
H           76.50690001407028       -2.64986232802186        0.27424545998949
H           76.46387628208240        2.60141037768205       -0.36870126275368
H           74.56868044411911        4.45788437938206       -0.69907346831991
H           72.69936429396061        0.70442483528024       -0.20138251298911
H           70.86577054687888        5.32810798327402        0.92316931866184
H           70.87680795781891        7.76078374584317        0.40565223146945
H           72.83598611245407        7.14637117469914       -3.15458716074263
H           72.90024318947033        4.68625439290882       -2.79896744187100
H           69.25210358271639        4.37747909101321       -0.98320867728247
H           67.37464430222035        2.48639621396548       -0.61798458821345
C           87.13648567597888       -0.00413960412154       -0.00013936873087
C           87.77183955384416       -1.23245553648520        0.26967528997834
C           87.13557416363291       -2.46257422093945        0.57608900754823
C           88.10972664012048       -3.40717786780406        0.75156752055852
C           89.37013351665330       -2.78132287014317        0.54856049796663
N           89.11503509205734       -1.46521516032357        0.27018463503618
C           90.63331898189065       -3.38013755837877        0.63292533176193
C           90.64765691689394       -4.83628352198496        0.91667301646817
C           91.23360717825224       -5.34175454827903        2.07648364676577
C           91.21804619562873       -6.70943056220565        2.30033922792980
N           90.67056764657900       -7.57574346588921        1.45398236213415
C           90.11281093068037       -7.10250772202631        0.34440981634389
C           90.07363797758045       -5.75184781626606        0.03553822389573
C           91.86087293207517       -2.73473901733643        0.47575766016381
C           93.14214333372519       -3.41741552904070        0.52118468243335
C           94.08661931657801       -2.47157618540763        0.33924635676067
N           92.04816168692250       -1.40527573121863        0.24822728660924
C           93.38132067221957       -1.21642119373438        0.17288884399258
C           94.04299054204810        0.01249192662007       -0.02992122550866
C           93.40804172787654        1.25214324321389       -0.24275932861077
C           94.04462396859732        2.50553221687534       -0.43209958672063
C           93.07031574976548        3.44756740289524       -0.62015775084144
C           91.80919595821457        2.79376359172125       -0.55856749947900
N           92.06442781997755        1.46982607531761       -0.31979898379344
C           90.54568501154759        3.38265330905595       -0.69289353559211
C           90.53014350960184        4.83831082437891       -0.97950446455136
C           89.95650006033057        5.74476701806031       -0.08880363357443
C           89.96838843155355        7.09564421958043       -0.39841681025972
N           90.50092003570866        7.57774294273286       -1.51669980542408
C           91.04702387839562        6.72016600215134       -2.37256101797793
C           91.08886898521504        5.35288828376961       -2.14872840632228
C           89.31768508036603        2.72834790270777       -0.58171198865472
C           88.03553136571229        3.38036338290415       -0.78405276597405
C           87.09118588249480        2.43690116722178       -0.58941838286360
C           87.79729586315295        1.21013322811444       -0.27826474122208
N           89.13078440668825        1.41145033526377       -0.29048200454928
H           86.06901439686550       -2.59771808602484        0.65532866759802
H           87.96950551092091       -4.44449440595514        1.00793564107446
H           89.82616225237837       -0.76359069546673        0.09338702562324
H           91.68169434702766       -4.67141360862038        2.80014296030709
H           91.66396823102110       -7.12645549558603        3.19852239950603
H           89.67694679113765       -7.83500540859928       -0.32865543857518
H           89.61799499548431       -5.41273231307643       -0.88721290236189
H           93.27814758633066       -4.47753052125126        0.66041123843680
H           95.15821073142692       -2.58663240624756        0.30792891612602
H           95.11162573918169        2.65874056451768       -0.41996298440329
H           93.21076659365407        4.50425087598003       -0.77870752676764
H           91.35300893222524        0.75489520166169       -0.21024714394013
H           89.52040065741674        5.39765073601212        0.84025826571673
H           89.53166332042046        7.82125760439256        0.28147852702116
H           91.47067383604519        7.14391629343599       -3.27837987054335
H           91.53437117464006        4.69012066915570       -2.88107834752569
H           87.89870295618563        4.41548153561548       -1.05151499211508
H           86.01909212814152        2.53343995249079       -0.65155931011697
C          105.79108758273337       -0.02809800824908        0.03881208544555
C          106.43062481635351       -1.25377128770691        0.31092412400490
C          105.79926232406594       -2.48292440556758        0.63115194119059
C          106.77676420602548       -3.42366456159818        0.80903935631300
C          108.03443405024890       -2.79693252412727        0.59205735130536
N          107.77436752533684       -1.48363355580553        0.30459817426880
C          109.29956780113343       -3.39252267385085        0.66955218350050
C          109.32189757058080       -4.84508014416528        0.97062525186508
C          109.92557745777681       -5.33330416953687        2.12883818466075
C          109.91957949243687       -6.69804938259463        2.37009798389867
N          109.36507385481360       -7.57746122933921        1.54199576988880
C          108.79043516139039       -7.12076994604350        0.43412885961568
C          108.74071995248282       -5.77428584249371        0.10876319933790
C          110.52419446947768       -2.74709607517092        0.48996742232727
C          111.80653773428776       -3.42868990823231        0.52106403194304
C          112.74740655961273       -2.48394195544642        0.31616583239432
N          110.70698334263749       -1.41944871596300        0.24934054409567
C          112.03876783731249       -1.23043592316224        0.15214799475161
C          112.69647269878215       -0.00207402866007       -0.06508674148804
C          112.05813389372605        1.23742712424208       -0.26814750815939
C          112.69162324613271        2.49148156594302       -0.46312269153722
C          111.71440271143939        3.43401556216673       -0.63259113878716
C          110.45457708950626        2.77953620123176       -0.55460606571388
N          110.71355143357680        1.45486133016249       -0.32455837395113
C          109.18883186895529        3.36766612583986       -0.66931342326291
C          109.16826316705584        4.82529654587465       -0.94527124505463
C          108.60538713810591        5.72408910502126       -0.04006067093724
C          108.61369802276946        7.07754967299264       -0.33823781543362
N          109.13274993078709        7.56914333428521       -1.45872704920784
C          109.66804136999318        6.71885620556644       -2.32858010938443
C          109.71243645917303        5.34970998760860       -2.11696369993807
C          107.96326142582086        2.71067614492066       -0.54862826948013
C          106.67848852844446        3.36132286967770       -0.73788423191502
C          105.73744625037851        2.41476076491859       -0.54256236800581
C          106.44805828961566        1.18793780308096       -0.24165435778341
N          107.78100632018320        1.39201771314941       -0.26208394608929
H          104.73352896246924       -2.61972349146139        0.71839365106898
H          106.64061311166056       -4.45903153379649        1.07532939283345
H          108.48283816559935       -0.78192559511281        0.11768705734042
H          110.38045877015273       -4.65183216547219        2.83772517606909
H          110.37958886008563       -7.10165636479647        3.26731324661469
H          108.34947741224808       -7.86374612005554       -0.22396333913495
H          108.27188463366443       -5.44914916465128       -0.81239718349350
H          111.94546379759254       -4.48762820176132        0.66623427111034
H          113.81845167582975       -2.59859015653447        0.26851836750956
H          113.75864962517478        2.64492259112059       -0.46667625895736
H          111.85237495193353        4.49128644911604       -0.78930332460625
H          110.00398280348472        0.73948069739354       -0.20625310671429
H          108.18064957518577        5.36897544719927        0.89124410828553
H          108.18559300714358        7.79736760254723        0.35319980540777
H          110.08067375567893        7.15030503857334       -3.23584817318699
H          110.14885534184022        4.69321065236665       -2.86034351286948
H          106.53797857995716        4.39767836255913       -0.99856959398057
H          104.66480465137255        2.50971057857808       -0.59682498117192
C          124.44362039874646        0.02147323785145       -0.02261996944013
C          125.07766244308473       -1.20927173723475        0.23935628423433
C          124.43889510817849       -2.44230928147797        0.52925795677046
C          125.41149379103771       -3.38760844450516        0.70933647932069
C          126.67361819818558       -2.75991363434247        0.52376685519920
N          126.42076932068727       -1.44170110599027        0.25220678153373
C          127.93668761656863       -3.35778451286767        0.61253775313386
C          127.95586357511590       -4.81409397824984        0.89382397941961
C          128.54737388527127       -5.31727617270695        2.05199696167277
C          128.53951518496700       -6.68501431944385        2.27538248264073
N          127.99444601323911       -7.55376539484886        1.42991436723438
C          127.43170488481313       -7.08283751534761        0.32190026590263
C          127.38472977952826       -5.73223643809273        0.01358876517597
C          129.16304372459823       -2.70853585744611        0.45993791917506
C          130.44571630184726       -3.38914496896716        0.49395969323323
C          131.38741498545414       -2.43996312967465        0.31509155566377
N          129.34631638465513       -1.37685708734377        0.24458806828473
C          130.67887258916755       -1.18445693202702        0.16602560315762
C          131.33765299290729        0.04853915207391       -0.01617890824300
C          130.70411706912225        1.29400374967074       -0.19443075371223
C          131.34315825608417        2.55130393472426       -0.34577415250196
C          130.37073836953746        3.50018809964160       -0.50713943965881
C          129.10882848148685        2.84638236505431       -0.46884467713844
N          129.36118356297970        1.51590421818612       -0.26749576894906
C          127.84569193561849        3.43774162589576       -0.59534428227680
C          127.83038726157422        4.90110780102599       -0.83791600201542
C          127.24403204969209        5.77866473808071        0.07322033759751
C          127.26077478321621        7.13885047402805       -0.19221666676718
N          127.80957485092836        7.65662324831549       -1.28644040812229
C          128.36702031202577        6.82674301993150       -2.16210375941722
C          128.40512361622771        5.45291806929727       -1.98221447077638
C          126.61950043584538        2.77597146449721       -0.51499759569497
C          125.33704676803536        3.42694361349715       -0.71756187260441
C          124.39514142430484        2.47409378770234       -0.56059646382761
C          125.10322095931581        1.24327580087229       -0.26960041195118
N          126.43553739698173        1.45105997649412       -0.25957505527776
H          123.37161744964092       -2.57855865692758        0.59585234907931
H          125.26912824862332       -4.42674321097007        0.95704717419027
H          127.13430144142190       -0.73911696318855        0.08940819246782
H          128.99427740710337       -4.64494562628748        2.77456521560675
H          128.99014609785115       -7.10011804711189        3.17211698327497
H          126.99843543286222       -7.81735394284014       -0.35063853249093
H          126.92615725261220       -5.39542819310107       -0.90853925687934
H          130.58435532032544       -4.45025751381287        0.62260463415130
H          132.45908099929366       -2.55248265933612        0.27760350949581
H          132.41035649265959        2.70242034181170       -0.32667293489496
H          130.51334143321512        4.56092470390922       -0.63327156283705
H          128.64773907255093        0.79989556649112       -0.18054908380843
H          126.79518176602512        5.40197505504350        0.98452117030365
H          126.81513929041368        7.84242262368542        0.50484696470151
H          128.80373735901611        7.27930610195570       -3.04756008701761
H          128.86062528801415        4.81397706723824       -2.72944390323839
H          125.19905213809041        4.46797108518545       -0.96043977462877
H          123.32354317260466        2.56714295436730       -0.63511937944799
