408
 energy: -652.182194729903 gnorm: 0.000460030730 xtb: 6.5.1 (b24c23e)
C           95.14524128716619        0.25894555094764       -0.09993720890745
C           95.76025040437491        0.44907398931625       -1.33086408982699
C           95.11523013269309        0.60616683587166       -2.58891349404066
C           96.08349311140881        0.74349420938574       -3.54414097010974
C           97.35112156534431        0.68750803541786       -2.89849016260522
N           97.10504699231656        0.50234595446313       -1.56714995118466
C           98.61776923388659        0.78521684243552       -3.48720717659329
C           98.65752006913654        1.02141160305549       -4.94890508564847
C           99.30637103484821        0.12046233892294       -5.79572551960014
C           99.33778208691365        0.31938179803149       -7.16525174748620
C           98.71614283998518        1.43870982627377       -7.72614842423738
N           98.76178327178758        1.71534719613311       -9.08497688486823
C           98.95402102048317        0.62730034026738      -10.03448543924863
C           98.07830510796417        2.35406290698160       -6.88006228442024
C           98.04499948928043        2.14327969029410       -5.51446627710081
C           99.83022908768959        0.67382463302654       -2.80016672182899
C          101.12575274585274        0.89627938858766       -3.41499962210932
C          102.04594577552545        0.70882998075070       -2.44608101331340
N           99.98546021785397        0.37563749547826       -1.48042093467878
C          101.31361524165057        0.37288175566960       -1.24168263976035
C          101.95028479306288        0.09885021019544       -0.01346316822285
C          101.30438443269325       -0.15525971467681        1.21245032952502
C          101.93654672676567       -0.41120778322029        2.45657801573241
C          100.96298394987694       -0.55649055856175        3.40616077140547
C           99.70187689983818       -0.40937183949504        2.76693037593888
N           99.96001867086110       -0.17007314568441        1.44225734387035
C           98.43856968174005       -0.45363891405030        3.36905467291530
C           98.40084595453520       -0.71591882028010        4.82682055338412
C           97.83407219099105        0.21321139232877        5.70131828946565
C           97.79994207518766       -0.01529876296887        7.06634469622113
C           98.33587766560694       -1.19339735242321        7.59425100952591
N           98.27950837595046       -1.49899081217951        8.94631168891708
C           98.17452557779366       -0.42440170244113        9.92419972844116
C           98.89241709540168       -2.13512558251624        6.72014374763210
C           98.92893045933364       -1.89527489256436        5.35940626446160
C           97.22550157942283       -0.26910193765347        2.69679632877809
C           95.91860427682245       -0.39004659120322        3.32391001603028
C           95.00686810848757       -0.18689073507068        2.35136352854981
C           95.75515718640690        0.04835730818857        1.12970266624492
N           97.08732584019840       -0.00732920974281        1.37527717510859
H           94.05989790774822        0.25791141818465       -0.11332769040235
H           94.04646181937896        0.60281764228499       -2.73316759729013
H           95.93645400787712        0.86030432898544       -4.60563436778055
H           97.82536788757884        0.40112410676907       -0.86001854708323
H           99.77625937887230       -0.76154285110968       -5.37423715654010
H           99.84770657372414       -0.40122353377586       -7.79280696561430
H           98.03461902406934        2.35716574481183       -9.37721711334957
H           98.23871559891816       -0.18596030340628       -9.86614345954642
H           98.81431925751517        1.02790211512665      -11.03854707084921
H           99.96864120572079        0.23513693130040       -9.95348871167716
H           97.60852855399088        3.23508973268160       -7.30469157094232
H           97.55728882586627        2.86801183254477       -4.87155420365952
H          101.28756981635557        1.18307710191732       -4.44144318174222
H          103.11737621773915        0.80286582307998       -2.51348592611986
H          103.00226141693892       -0.47267033604556        2.60202864766574
H          101.10584729312990       -0.73792111459322        4.45889168387519
H           99.24453677632935       -0.01235171084024        0.74017861772884
H           97.43181835985546        1.13971080039816        5.30607122233829
H           97.35450250212357        0.72815723465757        7.71593777215395
H           98.95664871328209       -2.20193749642740        9.21703040794533
H           97.19248236031062        0.04584139556571        9.85902186230217
H           98.94918528181051        0.33615818585614        9.77271491318395
H           98.28695901432620       -0.86029557055358       10.91692820435604
H           99.29555502235016       -3.06010990886422        7.11899447297797
H           99.35228514475773       -2.64012835616398        4.69433928733905
H           95.74573251307967       -0.61960572695053        4.36308523779610
H           93.93025510669389       -0.20033628699898        2.42093273185014
C          156.60093740032747        0.14817728155713       -0.25925036575114
C          156.02183817627798        0.41100151309296        0.97579432137369
C          156.70185921919534        0.62090511835670        2.20736773522915
C          155.76136264993301        0.83293346217869        3.17670626015817
C          154.47697395515314        0.77087753746763        2.56594750925751
N          154.68497219793358        0.50654203476226        1.24155439939755
C          153.22775087386304        0.93330574860862        3.17748106348633
C          153.22929675165568        1.26013433989957        4.62193365583966
C          152.57717938077749        0.43185955363541        5.53777785505729
C          152.58499320989171        0.71522216248949        6.89263030650077
C          153.25075471525872        1.84838117332541        7.36875312299612
N          153.24778608435636        2.20782465004732        8.70878857764660
C          153.04990424929784        1.18470290264247        9.72695013222166
C          153.89125662018859        2.69206920055089        6.45299047899220
C          153.88511007729826        2.39708002578334        5.10271068440848
C          151.99688234352334        0.80471610833416        2.52735387638252
C          150.72159768758607        1.09284423254137        3.15672026926464
C          149.77392090908737        0.85316017689744        2.22666371938913
N          151.80291761832211        0.42050943011379        1.23499606038436
C          150.46907206864168        0.42116902430031        1.03110476494380
C          149.79578076323418        0.06742329254882       -0.15684388571656
C          150.40502299878986       -0.26250156764101       -1.38344006068213
C          149.73649431093943       -0.58627218495533       -2.59244408272876
C          150.68173922599786       -0.78248588610861       -3.56127757966621
C          151.96107233466398       -0.60180220962849       -2.96841233995215
N          151.74194135665158       -0.29161916534557       -1.65141553257954
C          153.20649519023266       -0.67899504085460       -3.60302363957435
C          153.20350880774967       -1.00369066796062       -5.04890952495734
C          153.74110642633090       -0.10916581507737       -5.97629604821554
C          153.73754538339375       -0.39315926562225       -7.33123661991710
C          153.19288863980364       -1.59405499504272       -7.79489924893372
N          153.21265052535867       -1.95401845659683       -9.13474853997638
C          153.27393194934058       -0.91782250583677      -10.15704570771926
C          152.66654455539765       -2.50147709230553       -6.86752890604317
C          152.66678057307971       -2.20598805498639       -5.51714078913021
C          154.43893010555206       -0.47319044804048       -2.97346978632315
C          155.72660139587859       -0.63598183564427       -3.63014720787174
C          156.66697063076325       -0.40516029257964       -2.69163564698189
C          155.95526354703142       -0.10774974008025       -1.46166883044282
N          154.61623248017767       -0.15608186785331       -1.66892786072552
H          157.68607087234287        0.12760065108638       -0.27345470784725
H          157.77363274766122        0.60092481175761        2.32565720095787
H          155.93771414902025        1.00412745429687        4.22629360663169
H          153.94452511610544        0.38207430329285        0.55932726877369
H          152.07352128758708       -0.46073713256849        5.18287230762077
H          152.07114624989185        0.04944663945248        7.57510764904704
H          154.00043040936478        2.84381756678647        8.94377792276779
H          153.73798178494675        0.34240607755760        9.59101058967273
H          153.22641210871123        1.64047727174730       10.70122649260132
H          152.02312067338920        0.81816833278281        9.69413861542496
H          154.39455386317374        3.58402319981969        6.81121846128735
H          154.37567759938801        3.06718294449897        4.40502542278147
H          150.59079315803066        1.45450602709762        4.16371930501304
H          148.70660611683576        0.97258980747801        2.31323352976817
H          148.66692224172419       -0.65454689411977       -2.70271930409241
H          150.50830450708335       -1.02105140056312       -4.59790326331220
H          152.47763650580944       -0.09690885015248       -0.98017627908926
H          154.15053322141250        0.83379368027249       -5.63042043418985
H          154.16070190602534        0.32464664738061       -8.02319975583368
H          152.53432068598039       -2.67306813437465       -9.35589007752758
H          154.25260996043855       -0.43639735341552      -10.14354996400031
H          152.49687719252489       -0.15907476289242      -10.00915093702009
H          153.13292559604713       -1.39351098086784      -11.12759940696749
H          152.25742630090986       -3.44381272853593       -7.21657986898347
H          152.26590561941393       -2.92443191071552       -4.81039857539379
H          155.86778485689280       -0.91026797485346       -4.66326475130477
H          157.74105280139983       -0.43557077062845       -2.78932961508615
C          103.35948228313400        0.08968905993225        0.00556241536673
C          104.57758318220309        0.07809673177077        0.01689451122127
C          114.30673663753242       -0.02163862259766        0.07682153088899
C          115.52627100120223       -0.02607738639872        0.07559929834647
C          125.27294440970975       -0.03983053077128        0.10783712326953
C          126.49247240930146       -0.02537235890189        0.10990762510798
C          136.22978153905746        0.03264007191687        0.12558359421582
C          137.44899425539069        0.01537777543056        0.11055865187768
C          147.16916538827536        0.02479411163779       -0.10545993779551
C          148.38687446088835        0.05202921120109       -0.13277049304994
C          105.98568492803830        0.07316807271944        0.02613788235081
C          106.61328495464058        0.20078675381809        1.28082878629204
C          105.97179965648026        0.33611157709390        2.53760170436886
C          106.93819364560699        0.34879474778618        3.50643396314186
C          108.20176104674429        0.23675378511771        2.86658516650650
N          107.95507307890846        0.15927225428629        1.52164378179300
C          109.45444057795335        0.14811803229318        3.48748372135679
C          109.45411548387932        0.20641601860609        4.97075040644111
C          109.89881720467824       -0.87952739569327        5.72894842962067
C          109.88762141815592       -0.82844193164993        7.11030371868660
C          109.43469322178164        0.31669541233701        7.77625880374064
N          109.49419002706533        0.34293531795227        9.16317099665040
C          108.60511288220704        1.23037096904288        9.90149587893586
C          109.00355254530545        1.41138220948184        7.02213238531703
C          109.00772736642344        1.34739464107780        5.63876481682618
C          110.68148873971252        0.01413417180768        2.83607293081717
C          111.95389474008343       -0.04776773561296        3.53083635006487
C          112.90654386908152       -0.10633195813490        2.57754337226591
N          110.88478728125644       -0.00722598348285        1.48862363973539
C          112.22025575372692       -0.06407089687117        1.30375643061027
C          112.89916686657546       -0.02631250915415        0.06725991109883
C          112.27096505094794        0.02627155591783       -1.19433798225952
C          112.90734046107691        0.15851261517172       -2.45342986970752
C          111.93927583064011        0.13918619456794       -3.42103287431901
C          110.68106599370955       -0.01054394231888       -2.77916662414157
N          110.93057016032749       -0.05508470365697       -1.43299443028820
C          109.42579042925800       -0.10290296110884       -3.39649238289923
C          109.42046859265497       -0.15083086808197       -4.87666330347600
C          108.71342825705402        0.79820105172991       -5.61818571362665
C          108.69972761402120        0.76142088110248       -7.00173709090019
C          109.38505316460946       -0.24803081486999       -7.68392132612238
N          109.43759615299791       -0.30922175953579       -9.06899746611436
C          108.36820445077552        0.29216262941602       -9.85497875027375
C          110.10140887424673       -1.19828084839789       -6.94590981806249
C          110.12086258279888       -1.14590438070704       -5.56511887437488
C          108.19588238835553       -0.15205883365003       -2.73589756531722
C          106.92819624834866       -0.36526656941928       -3.41004779226874
C          105.97414554173100       -0.31288735085609       -2.45686260862581
C          106.65897062395481       -0.07315676085670       -1.20389108454378
N          107.99282546635095       -0.00597009825618       -1.39753436158914
H          104.90631063804292        0.41060897268558        2.67848398629284
H          106.78763576875427        0.41842079486735        4.57133248166826
H          108.66993408354689        0.06857218226972        0.80738490214432
H          110.23630879946919       -1.77953558933334        5.22677940390974
H          110.22929010264404       -1.68128911925694        7.68746125263084
H          109.52993436876737       -0.58544111512533        9.56734557275777
H          107.55988477201447        1.09619830203697        9.59971886456895
H          108.70616115576189        1.00180181854340       10.96250233590813
H          108.89469332909165        2.26937051675977        9.73962536172017
H          108.66690880844169        2.31875356534494        7.50844579752071
H          108.67886830353820        2.20695091233851        5.06468255859774
H          112.08299820523833       -0.03270011975881        4.60082591932604
H          113.97438565701310       -0.16900548025231        2.70261321051492
H          113.96896476242044        0.27046491715040       -2.59666327266663
H          112.08375622561144        0.23812864796402       -4.48442744383451
H          110.21759995789463       -0.12954728257311       -0.71523460359263
H          108.18408187821464        1.59093329966784       -5.10083250141964
H          108.15530993593298        1.52343769045461       -7.54581988059962
H          109.69364283918959       -1.22857860183660       -9.40881778003878
H          108.41370841951722        1.37925143316884       -9.77821069590181
H          108.51650716018978        0.00977619109919      -10.89728336887935
H          107.38191115392571       -0.05172796112900       -9.52299917114749
H          110.64038577719771       -1.98275593519042       -7.46679298804019
H          110.66290832779005       -1.90166423383366       -5.00705212475600
H          106.80626686427523       -0.55391080942072       -4.46438345136574
H          104.90983221100626       -0.44266035567142       -2.56606625549360
C          116.93362014717353       -0.02097292508172        0.08050343310554
C          117.56919101884870        0.12387322313095        1.33059423565201
C          116.93718678885256        0.26353791851257        2.59109190712355
C          117.90987521335833        0.28619486886245        3.55288351610391
C          119.16919678139712        0.17571602123715        2.90484940264924
N          118.91314659382756        0.09033712686502        1.56183693791549
C          120.42410728431547        0.09284101843033        3.52188228299550
C          120.42572488146453        0.15297837170247        5.00534442180257
C          120.86509774970914       -0.93518472801341        5.76335046918835
C          120.85115027860776       -0.88513922955996        7.14467057939108
C          120.40098476269768        0.26116858652003        7.81055613089801
N          120.45505792917704        0.28452202126155        9.19771209010739
C          119.57045168410089        1.17842579881190        9.93368880408739
C          119.97754994945996        1.35886428360324        7.05647586132489
C          119.98399871513500        1.29583871333123        5.67305596354884
C          121.65090801281229       -0.03877876448316        2.87019252012775
C          122.92366650191339       -0.09688220999000        3.56458009119703
C          123.87633997767000       -0.14937413208554        2.61091298825635
N          121.85369655405967       -0.05802457826202        1.52277633319977
C          123.18931051467197       -0.10769584040488        1.33767323509572
C          123.86591717991591       -0.06215815477374        0.10021114605614
C          123.23186139251823       -0.01747102670552       -1.15882011344954
C          123.85941657033051        0.11949031059046       -2.42154306379895
C          122.88561445733295        0.08840338820856       -3.38326043583843
C          121.63283599785714       -0.07377971649864       -2.73379661703729
N          121.89094229087982       -0.11390482468534       -1.38925122486472
C          120.37529480596292       -0.18061054050579       -3.34469027932829
C          120.36682411982991       -0.22635727851153       -4.82530706922284
C          119.65530018341227        0.72202793389231       -5.56320736465767
C          119.64577902710549        0.69339745603688       -6.94705285612318
C          120.33996806991748       -0.30725741489376       -7.63322935184237
N          120.40079841755166       -0.35760750078642       -9.01822369332167
C          119.33755822428702        0.25027725500915       -9.80729870146173
C          121.05783490495476       -1.25906281874932       -6.89858483482119
C          121.07333095979710       -1.21448914834618       -5.51747309601208
C          119.14754858319655       -0.24231360085588       -2.68154934801260
C          117.88251623000927       -0.47155456654291       -3.35458987604676
C          116.92832311778665       -0.42665136835113       -2.40089851792611
C          117.60936942142571       -0.17412722765243       -1.14912427689864
N          118.94214016949314       -0.09362043724982       -1.34313245500971
H          115.87332061159118        0.33240162954764        2.74081034539345
H          117.76617532796415        0.36086773709205        4.61830218739127
H          119.62227812248526       -0.00188021483319        0.84208659406529
H          121.19984859878066       -1.83606387445602        5.26091425280473
H          121.18767763548419       -1.73996171647846        7.72189859560564
H          120.47986103342836       -0.64504863048622        9.59998031505825
H          118.52558259857375        1.05445844968805        9.62657360240370
H          119.66431547735387        0.94662747760049       10.99465078407342
H          119.87040578203494        2.21502655747139        9.77545011808781
H          119.64410678763961        2.26741064795778        7.54274122562778
H          119.65982829131244        2.15707541457284        5.09886434127599
H          123.05285088940377       -0.08409208049997        4.63458674557455
H          124.94443378469668       -0.20870609636146        2.73536722582273
H          124.91900409385885        0.24197463236287       -2.57128011813272
H          123.02284783891749        0.18697839883274       -4.44764151024046
H          121.18434719559964       -0.19450630251332       -0.66585885028938
H          119.11970402533501        1.50845777092193       -5.04265765543713
H          119.09852991671139        1.45552557637568       -7.48813248816500
H          120.66191039498626       -1.27303294428571       -9.36451845897697
H          119.38234504751927        1.33670577960078       -9.72084692874276
H          119.49417601779754       -0.02310256698749      -10.85079106320845
H          118.34867069306233       -0.09647761765543       -9.48619886630036
H          121.60252055165397       -2.03751836841560       -7.42255399124575
H          121.61838977245579       -1.97017028766795       -4.96224165408707
H          117.76216209114699       -0.66454386244241       -4.40835385993492
H          115.86568523691234       -0.56858926897943       -2.50950211624789
C          127.89947416167976        0.00072763956690        0.11438817290251
C          128.53369803792651        0.15029095276218        1.36471137575673
C          127.89921960421235        0.27243647709639        2.62586119395686
C          128.87089755830300        0.30342076204512        3.58842534346167
C          130.13213109264080        0.21676423793902        2.94052316437430
N          129.87795052338865        0.13642413306096        1.59662342152383
C          131.38844249145970        0.14982259633757        3.55697694914563
C          131.39165586479112        0.19589588969284        5.04061964548857
C          131.86159669701564       -0.88907561634820        5.78518424926638
C          131.85146020752529       -0.85523694743157        7.16690131943624
C          131.37434508346146        0.27144122926720        7.84754000756437
N          131.43456793285796        0.28066100940576        9.23425946951830
C          130.53229108307258        1.14268579998957        9.98636197556552
C          130.91918258956076        1.36592618478249        7.10722939372564
C          130.92246456893983        1.31901259058449        5.72311349455086
C          132.61623051552033        0.03982630126943        2.90244561640058
C          133.89195002313497        0.00262128501530        3.59316779835272
C          134.84254299907238       -0.04189933875762        2.63692191603432
N          132.81520881694115        0.02024162454476        1.55473824768532
C          134.15081510533855       -0.01557831697623        1.36570521993538
C          134.82268272757881        0.02927026360115        0.12629249310524
C          134.18662552965333        0.08512946975113       -1.13153763882354
C          134.81279023731435        0.24767204318840       -2.39186339301403
C          133.83961307225303        0.21782446864734       -3.35441670033673
C          132.58926621501470        0.02955095790461       -2.70775283678595
N          132.84698970055129       -0.02219758764903       -1.36353453668663
C          131.33386843328168       -0.09614971999993       -3.32000485351390
C          131.32719871494646       -0.14415466382493       -4.80003520364200
C          130.58723256906055        0.77893308379392       -5.54223398721408
C          130.57852488336647        0.74368027491214       -6.92594393289929
C          131.30345288611150       -0.23788166851886       -7.60796456642279
N          131.36521378077671       -0.29294303056416       -8.99278976912046
C          130.27766864578172        0.26778790261446       -9.78373612501666
C          132.05113824634745       -1.16318962478106       -6.86929152962523
C          132.06438968072760       -1.11257650598871       -5.48848212969603
C          130.10871380037594       -0.18084007278279       -2.65475129156697
C          128.84592366117263       -0.43234663356950       -3.32371461080811
C          127.89409022938401       -0.40339747127990       -2.36699561094877
C          128.57469496739409       -0.13935119376091       -1.11729121069625
N          129.90501607735709       -0.03618532790195       -1.31541251320905
H          126.83435952550418        0.32396726747636        2.77540756828660
H          128.72516042433844        0.36821587793211        4.65421018861881
H          130.58958700816979        0.05793439182533        0.87774696410931
H          132.21750452658438       -1.77537995823482        5.27147916790905
H          132.21223408845631       -1.70756079519690        7.73308338968823
H          131.48900779191646       -0.65177796310076        9.62672377230037
H          129.48838876117605        0.99196181724210        9.68799347627533
H          130.64281922260224        0.90419695071434       11.04425371636816
H          130.80138716803773        2.18872931878582        9.83487919008584
H          130.56363943094206        2.25974099437520        7.60505337216690
H          130.57448404323210        2.17846589950948        5.16027533845346
H          134.02422064372865        0.02423978925704        4.66266809663441
H          135.91215134616505       -0.08172751628826        2.75810397200033
H          135.87035511109579        0.38894569915912       -2.53925855062551
H          133.97570637379718        0.33476621848621       -4.41707985831251
H          132.14057974441752       -0.12136767680355       -0.64233265022979
H          130.02836023131539        1.55148481562620       -5.02538916132638
H          130.00796277461220        1.48600796603770       -7.47049709865673
H          131.66065782038712       -1.19983588962029       -9.33406868719394
H          130.27722668945285        1.35536470323817       -9.70104374803048
H          130.44543857446212       -0.00247894650535      -10.82631052317642
H          129.30412830658616       -0.11875683666477       -9.46116916937100
H          132.62028472982456       -1.92632110014083       -7.38980909532782
H          132.63195095362457       -1.84920848902192       -4.93020352149877
H          128.72559772281582       -0.62873836801975       -4.37684662887688
H          126.83372342496760       -0.56372792258393       -2.47229356116539
C          138.85595705928048        0.00665406027271        0.08679117282867
C          139.52023510665344        0.14956667921283        1.32177086267663
C          138.91559062432188        0.27902866107293        2.59707537455070
C          139.90886481667235        0.29252181320320        3.53782132017755
C          141.15412901228012        0.18856455155156        2.86184860986294
N          140.86883257132823        0.11397235831537        1.52390064372114
C          142.42377151984388        0.10329945107986        3.44796180054119
C          142.46693097184328        0.14493635243777        4.93081655075512
C          142.95058680585956       -0.94476404186071        5.65964739407809
C          142.98562448923610       -0.91145998794284        7.04089764062640
C          142.54189426954034        0.21965894771955        7.73670080370896
N          142.65037295897162        0.22945493814112        9.12010697387744
C          141.79135882422349        1.10851344087432        9.90226050492880
C          142.07063327839410        1.31765608314098        7.01174452497880
C          142.02839850243055        1.27121243260577        5.62827862514291
C          143.63347406396747       -0.01425543632846        2.76124525327759
C          144.92779156274477       -0.06521334369769        3.41658820020410
C          145.85244175262633       -0.10154070072422        2.43501053705790
N          143.79513880308573       -0.02290894662010        1.40892923353103
C          145.12529002343226       -0.05884418294545        1.18332307047330
C          145.76194718271111       -0.01122102139641       -0.07328963206274
C          145.09844025935342        0.01205923065214       -1.31642599978338
C          145.69773182923467        0.13658308035650       -2.59439915367509
C          144.70398060912692        0.08148313616315       -3.53450395760401
C          143.46735840834339       -0.08268047272473       -2.85549912966642
N          143.75409892916539       -0.09953844396282       -1.51654411049572
C          142.19660962773159       -0.21219594397788       -3.43388331625684
C          142.15187695250188       -0.29192214175831       -4.91167640509394
C          141.40026882571269        0.62169959981353       -5.65387745680389
C          141.35743118649287        0.55938204738004       -7.03596728246350
C          142.05935096522970       -0.44016343276338       -7.71583261050764
N          142.08822405476818       -0.52246849917222       -9.10052520532807
C          140.98718138460382        0.03258889716262       -9.87661813771347
C          142.81846105529911       -1.35625431872467       -6.97729768381596
C          142.86541319885589       -1.27903022970453       -5.59843126194519
C          140.98883745662403       -0.26741256296177       -2.73468470561144
C          139.70566630110835       -0.51792644211715       -3.36373964787669
C          138.78006611956923       -0.45104481476184       -2.38347515751004
C          139.49743153255406       -0.16716215511649       -1.15871161613685
N          140.82321095835516       -0.08880097084280       -1.39411487107489
H          137.85476553249401        0.34390691690947        2.77005047358806
H          139.78813247840020        0.35680234399399        4.60678288019906
H          141.56338740063742        0.02681852900529        0.78948211524418
H          143.28235311772090       -1.83372357228874        5.13449239782025
H          143.35768496996761       -1.76686990637817        7.59496933952707
H          142.70688672296873       -0.70240723492475        9.51327114483575
H          140.73574180496530        0.98319022242219        9.63513578233134
H          141.92822472188575        0.86316627501869       10.95547021082463
H          142.07987027923318        2.14879409794271        9.74622460730541
H          141.73905303292091        2.21423609117105        7.52097667305679
H          141.66989043695557        2.13390376958844        5.07711831190632
H          145.08884257319968       -0.05822075249145        4.48229939748843
H          146.92472615973838       -0.15351276885789        2.52672754102030
H          146.75298739381202        0.26704961257667       -2.76834135477208
H          144.81749885822424        0.16599162877846       -4.60289481458776
H          143.06259611589638       -0.17566017013322       -0.77824042085152
H          140.85956029591941        1.40834325081463       -5.13898377672021
H          140.77846565557675        1.29494423228513       -7.58079761175083
H          142.36646782029186       -1.43905839084176       -9.43030729135686
H          140.99297068856899        1.12107992079886       -9.80818114147248
H          141.13281293568917       -0.25189795361938      -10.91873405609290
H          140.01876364793478       -0.34551466781438       -9.52947163241009
H          143.37002612328627       -2.13315237056966       -7.49638671497673
H          143.44140005174071       -2.00876102599844       -5.03968143070328
H          139.55481882744496       -0.73933980284646       -4.40794917112880
H          137.71560374564956       -0.60158998347553       -2.45676763174964
