177
 energy: -318.517206713613 gnorm: 0.000470269556 xtb: 6.5.1 (b24c23e)
Co          19.67053709209684       -0.01424685739208       -0.00330357798049
C           16.29910835898433       -0.05187801226296       -0.00099416800460
C           16.96774406639804       -1.24864875837972       -0.14514280679169
C           16.31631133452282       -2.51422447298940       -0.29647370857414
C           17.27860417647856       -3.46082265905674       -0.19695902558241
C           18.51888009761259       -2.77215982396227        0.01241681206783
N           18.32321814017699       -1.41461789199873       -0.00951855303891
C           19.70362316620028       -3.39581306839625        0.37936274533614
C           19.71580498032433       -4.86792869913584        0.54810991150151
C           19.91053560574986       -5.45086496482791        1.79899028992934
C           19.91023848271379       -6.83285488732339        1.90616539009627
N           19.73597369263991       -7.63997332258468        0.86477265793938
C           19.55189202809998       -7.09110997206479       -0.33153965241997
C           19.53135971922973       -5.72070638820844       -0.53877371618230
C           20.87286318538989       -2.68412555809498        0.59836449744368
C           22.12031288409490       -3.28188802634147        0.96955414131912
C           23.06411297204517       -2.31607054153688        0.86397130205781
N           21.04838576024397       -1.34871462770981        0.31283448822024
C           22.39334832652866       -1.13397223180329        0.42322243473857
C           23.06131522190967        0.02016967034541        0.00500676091927
C           22.37055891059244        1.16103578303046       -0.41206137413309
C           23.01362849882354        2.34699440231165       -0.88205247880077
C           22.04989416351228        3.29269605733522       -0.99501470417345
C           20.82193801483940        2.68235715920380       -0.58238447970142
N           21.02284005016860        1.35236232858644       -0.29089355339495
C           19.63199843796925        3.36943481928794       -0.39416977162251
C           19.61222639070469        4.83790532682416       -0.57145807664020
C           18.77311168072862        5.44233406641132       -1.50720849524829
C           18.79049722098175        6.82175046687402       -1.63906211364050
N           19.57117085679262        7.60963160295950       -0.90660735331397
C           20.37207971972460        7.04197098169427       -0.01052193681919
C           20.43030416259322        5.67189476952976        0.19009824085339
C           18.45615758561722        2.71607215866280       -0.04808690529776
C           17.20987785768178        3.37666621286999        0.20911731156822
C           16.26870593602335        2.40925178103245        0.31542247290261
C           16.94248915192348        1.15937457087619        0.13547364238360
N           18.29198425239264        1.35503296130338       -0.02141973559990
H           15.21564092591249       -0.06428950403997        0.00721007017376
H           15.25509630860625       -2.64143605025122       -0.43976594028039
H           17.16936375399465       -4.53243796411476       -0.23627851985262
H           20.04516415172663       -4.83129194254913        2.67752607406491
H           20.05529332449287       -7.31139849693855        2.87028613226443
H           19.41515157193709       -7.77680426835906       -1.16261510317978
H           19.38858717419452       -5.31723283126961       -1.53409738184366
H           22.24947044326366       -4.31419059951125        1.25094609679279
H           24.12467928809782       -2.38645268067245        1.04421417771614
H           24.06892039581499        2.43088486223663       -1.08600488394148
H           22.15040226082482        4.31393271489994       -1.32452750182914
H           18.12840027488429        4.83886387053978       -2.13500733784186
H           18.14923377122444        7.31468018429209       -2.36389753749109
H           20.99627499585634        7.71200826250000        0.57344290986242
H           21.09023428648075        5.25454182463450        0.94127366672460
H           17.08515546082156        4.44410022920981        0.29246342135111
H           15.20984670908200        2.51246911288043        0.49160649061542
Co          56.71524879596063        0.02986832636031        0.00450941059049
C           60.09051565721958        0.05772054708503        0.00846237018120
C           59.42756116948203        1.16256587660451       -0.48065069148820
C           60.08803992712950        2.32591224052245       -0.98967354554869
C           59.12926897630719        3.25958299095785       -1.19091719806348
C           57.88272066423827        2.66410708478806       -0.80647603462173
N           58.07128009884875        1.36208237705175       -0.41819399591362
C           56.69474677680442        3.36935064618906       -0.67203152799505
C           56.68946327489681        4.82290680500529       -0.96073864729952
C           56.47858076393726        5.75921007445631        0.04988650660432
C           56.48862153827675        7.10831952840693       -0.26813278601864
N           56.68704634417318        7.55994672132779       -1.50221376813825
C           56.88614194561563        6.67274097973469       -2.47148106072480
C           56.89872528644394        5.30414269969524       -2.25189431418138
C           55.51742034478441        2.76008508625406       -0.26793069792971
C           54.26862407911610        3.44672536641010       -0.12591801738548
C           53.32125685741336        2.49898232000456        0.06999001837955
N           55.33859619666121        1.40296962057908       -0.11817097516484
C           53.99174017973674        1.23758456501744        0.04117962443087
C           53.31995883010421        0.01221844996144        0.03164751692543
C           54.00501393392105       -1.20544125241283        0.01024975566798
C           53.35229810701165       -2.47470945157982       -0.05147698351369
C           54.31417889372355       -3.41424431057203        0.11345664154614
C           55.55025323008839       -2.71284118314289        0.28903261790072
N           55.35470094122375       -1.35619753712235        0.16035772686461
C           56.74434462605145       -3.31884561898608        0.64807610405043
C           56.76277413279165       -4.77460856285157        0.91252901584955
C           57.57138721978806       -5.63327895499848        0.16843541427215
C           57.55441372858684       -6.99019326560549        0.44956377188927
N           56.80251928346741       -7.52188766741982        1.40800333809633
C           56.03137076194501       -6.71003370166031        2.12410813974974
C           55.97502145242027       -5.34126769092352        1.91387043326118
C           57.92640144451311       -2.59938345758287        0.76534921759210
C           59.17362814539007       -3.16403295126680        1.19101475215193
C           60.11672716818578       -2.20985117263333        1.01064922026921
C           59.44324058365973       -1.06195900270041        0.48404566623219
N           58.09255215376501       -1.28982532831977        0.39504146167542
H           61.17399366380379        0.06967695791484        0.01818366235780
H           61.15188221651081        2.40386134135946       -1.14788699990654
H           59.24417369254876        4.27109030133975       -1.54507998554266
H           56.32405495456363        5.43644952993197        1.07251876448336
H           56.33173535195707        7.85781967510642        0.50207017383642
H           57.04245879461337        7.07284073701263       -3.46899704018366
H           57.05495273949825        4.61665589507676       -3.07456239693283
H           54.14183655714205        4.51496241894597       -0.19126466116604
H           52.25900113694635        2.62418272278699        0.20467328457753
H           52.29288137340355       -2.61142989897403       -0.19698706055581
H           54.20763902966221       -4.48669073333389        0.11990818206031
H           58.19225491350247       -5.24555658640530       -0.63041624210261
H           58.17151532594096       -7.67924040384162       -0.11963028679202
H           55.43088480733466       -7.17395062538417        2.90112969014061
H           55.34010451918798       -4.71652028930620        2.53071327288651
H           59.29699174683397       -4.16366345038283        1.57495824130676
H           61.17666678375210       -2.26148303996671        1.20228425348960
C           24.46359679052818        0.03161746108009       -0.00086025879857
C           25.68869892446092        0.03962515239683       -0.00647742348186
C           27.03010695867313        0.04524675009046       -0.01155639451328
C           28.26174056351577        0.04715473368985       -0.01497059971519
C           29.59811551810138        0.04672861827516       -0.01778917249656
C           30.82994132487730        0.04453758775834       -0.01896106399315
C           32.17083521471558        0.04043626251866       -0.01924737301474
C           33.39646215834117        0.03518295642238       -0.01982030805421
C           42.98496736413772       -0.00232016918187       -0.00216424245879
C           44.21078064133366       -0.00328018036653        0.00448947022558
C           45.55145946641748       -0.00455390812993        0.01195902343059
C           46.78336328212426       -0.00583725970699        0.01910462966560
C           48.11949491623972       -0.00520266282056        0.02640362488790
C           49.35128134527228       -0.00439696394350        0.03068349519249
C           50.69247198438211       -0.00027277187346        0.03296350551879
C           51.91776351473654        0.00474322626127        0.03298568686537
Co          38.19099269456813        0.02229582686079       -0.00448823406568
C           34.79714524843736        0.02438986036748       -0.02222281727807
C           35.47634711278266       -0.64210097027543        1.00312551144353
C           34.82519884122024       -1.28914772577902        2.09707082597233
C           35.77753685716900       -1.99968150520286        2.75014928281542
C           37.00463760974691       -1.78964748337141        2.04399995825481
N           36.81733985303042       -0.90167394966152        1.01101282120722
C           38.17893334915460       -2.49069469577337        2.28369319175774
C           38.17382718551128       -3.57266705328099        3.29218955392171
C           37.32044872941289       -4.66917865354594        3.17364683641781
C           37.35347246666330       -5.65837740061443        4.14380314230762
N           38.16145874795994       -5.61206119059508        5.19809945174871
C           38.97543349868752       -4.56852867369369        5.32057728109538
C           39.02065918638218       -3.53394390813716        4.39952227227735
C           39.35789769318612       -2.20299762446905        1.61010764583037
C           40.58376189134911       -2.92214742756037        1.78143879322925
C           41.54352096880327       -2.21605890125792        1.13499661139850
N           39.55257879458105       -1.11113915173422        0.79622434121692
C           40.89797533451871       -1.07766609070114        0.56278387523521
C           41.58453460913012       -0.00227240576111       -0.01095154021173
C           40.90567707148060        1.07150511826898       -0.59696282355655
C           41.55752470850071        2.20564390033253       -1.16999987085704
C           40.60679713055590        2.90142063034849       -1.84111523110880
C           39.37961553115127        2.18276577719272       -1.67965807345732
N           39.56513718368835        1.09587355043009       -0.85837732156564
C           38.20660991052525        2.46636500249948       -2.36636317284251
C           38.21802467277716        3.53188869197315       -3.39211465415090
C           39.07356210048945        3.46569744595388       -4.49145432677084
C           39.04597461872251        4.48414752571209       -5.43092769810924
N           38.24146833852834        5.53759151579716       -5.33338320724323
C           37.42633178709751        5.61081047767605       -4.28619116704825
C           37.37570624442075        4.63930851511953       -3.29900989530916
C           37.02477762701277        1.78259736181512       -2.11694061523463
C           35.79687702001808        2.00735478562779       -2.81776165355312
C           34.83546792616789        1.32572219559528       -2.14806087457583
C           35.48234793505235        0.67670900647147       -1.05246965607295
N           36.82910886325502        0.90319279654858       -1.07718510582485
H           33.77314408650312       -1.20828105282094        2.31809123373894
H           35.66877011580711       -2.61423340854600        3.62883559360739
H           36.65312491561844       -4.75453297835963        2.32436771825623
H           36.70298953447933       -6.52492146283181        4.07038490547285
H           39.62046726776045       -4.55783359561454        6.19422311922405
H           39.69196262952520       -2.69631578576220        4.54667386040834
H           40.68690874739227       -3.84320709330730        2.33151830284370
H           42.59740404838719       -2.42775460765410        1.05296218409625
H           42.60925707584481        2.42154483711638       -1.07269351192106
H           40.71634967178085        3.81733023264917       -2.39854406904616
H           39.73814631871234        2.61936389590807       -4.61779163727027
H           39.69816721730856        4.45193988979219       -6.29873670976308
H           36.78403902760629        6.48494894175881       -4.23318518520996
H           36.70338854272743        4.74706145610684       -2.45622854358050
H           35.69333801928730        2.61430167626801       -3.70229960616978
H           33.78000807141844        1.26494722300215       -2.35905278956327
