130
 energy: -257.334623858718 gnorm: 0.000722655359 xtb: 6.5.1 (b24c23e)
Co          14.73411520653333        0.04538502176313        0.05232291067986
C           11.35850880502969        0.07627867842016        0.14855617070309
C           12.01672132761303        1.25855659209850       -0.11310300400328
C           11.35031959668346        2.49970977999170       -0.36431527409438
C           12.31107218606085        3.45112811353259       -0.42053994553278
C           13.56405227102053        2.79008036459763       -0.19798006023388
N           13.37538327129109        1.43897823603674       -0.05214347235724
C           14.75978598017496        3.45734819736077        0.03153075162975
C           14.76698753576866        4.94131362530157        0.00418404599922
C           14.51528096556110        5.61847946846676       -1.18835967734820
C           14.52038629843655        7.00848615121215       -1.21357962257007
O           14.28365435380923        7.67801474534882       -2.36768274949574
C           14.76977421218371        7.72418153016343       -0.04140732785418
O           14.76347651781941        9.09330462133923       -0.09560542609288
C           15.01672180826557        7.04631777637493        1.14965294577602
O           15.24778881347803        7.81671613134642        2.25874728954378
C           15.01998839361984        5.65701366731091        1.17684554933501
C           15.93850525428847        2.78194970428852        0.30781214212398
C           17.18890909869918        3.42964577199371        0.56800810038141
C           18.13048328613526        2.45762824330381        0.61990299875589
N           16.11136464776710        1.41770066146785        0.23282979646747
C           17.45619281049670        1.22195661832664        0.37660112877816
C           18.12884765100432        0.01598666096201        0.16380124077459
C           17.44794670924786       -1.17196022240446       -0.11539157526927
C           18.10682996917517       -2.39867496544059       -0.43318667123793
C           17.14314027560509       -3.34740641392026       -0.51227431108555
C           15.90024602752938       -2.69867841782830       -0.22079704431242
N           16.09585999324186       -1.34786465394898       -0.03662901836349
C           14.70028437884281       -3.36724554168173       -0.03423916037470
C           14.67596223561827       -4.84696803418127       -0.10973535134164
C           15.45457967906565       -5.60911643152369        0.76138477989157
C           15.42287243365648       -6.99693420226401        0.69166642288997
O           16.16758086332210       -7.74709180379752        1.53959532136119
C           14.61800392888338       -7.62735733292202       -0.25862510849845
O           14.61020387085418       -8.99633233201330       -0.30692280660447
C           13.84414646235650       -6.86599542258670       -1.13090533644897
O           13.08327279229764       -7.55529450092492       -2.03809254418782
C           13.86522743044768       -5.47909636660945       -1.05665201055842
C           13.51773724623977       -2.68934081192652        0.23421946510770
C           12.27126739031567       -3.33407530058882        0.52656966044789
C           11.33258204955788       -2.36065237049373        0.59185740710559
C           12.00723616849698       -1.12399576689278        0.34073794393866
N           13.35549924777421       -1.32890828407256        0.18329990213893
H           10.27567425144263        0.08829206100593        0.18922171816602
H           10.28258732466206        2.60944297493291       -0.46862022174997
H           12.19374502187821        4.51153814756384       -0.57350813522545
H           14.33217840448929        5.07254860894062       -2.10474853634751
H           14.33135745985337        8.63064862071991       -2.18338099142107
H           14.95303216252033        9.42850994411065        0.79518631867923
H           15.40891965615661        7.26367930163396        3.03443138845069
H           15.19868571993459        5.13555525623356        2.10979319464137
H           17.32213565550549        4.49383373191397        0.67445373910697
H           19.19179981753564        2.55402438592440        0.78282815830238
H           19.17049606076340       -2.50334486286051       -0.57424935601749
H           17.25325012743149       -4.39446492188595       -0.74239424484257
H           16.07110181110625       -5.13119074479033        1.51154727716865
H           16.01057948712052       -8.68409351240463        1.33693384397648
H           14.00492251175772       -9.26713176662744       -1.01541142648278
H           12.58590782919345       -6.94806351385766       -2.60129128327766
H           13.26945109422254       -4.89248169718156       -1.74599915154546
H           12.14525677648923       -4.39569885099405        0.66494350683300
H           10.27460763671562       -2.45229738234120        0.77945850713625
Co          30.69120709727563       -0.05136480296198        0.04377229937663
C           34.06682398563024       -0.09346984121391        0.13120675211624
C           33.40780432360207       -1.23793999029311       -0.26309450079572
C           34.07320278207871       -2.44247440085519       -0.65562650197266
C           33.11212903828699       -3.38163586884753       -0.81617298482635
C           31.85993216070295       -2.75022981286919       -0.51655865521621
N           32.04923448498237       -1.42420349617418       -0.21973049996488
C           30.66469446512951       -3.43916170724837       -0.36010683208956
C           30.65701466891231       -4.91073308484301       -0.55353301934255
C           30.90427176755881       -5.45001071421550       -1.81531599363905
C           30.89859994034504       -6.82845108521008       -1.99605398496166
O           31.13094393957146       -7.36448645129113       -3.21873763170766
C           30.65318791780529       -7.67094237378289       -0.91052456129320
O           30.65886548904549       -9.02538507639577       -1.11775932637857
C           30.41068555831545       -7.13077380623159        0.34984185764718
O           30.18337241445451       -8.02056362908580        1.36649983988492
C           30.40788279422278       -5.75325346356484        0.53247361234972
C           29.48666896993304       -2.79892706067314       -0.00772256108546
C           28.23633250048885       -3.47146388830885        0.17953377406904
C           27.29479809308694       -2.51116301315159        0.33899989135963
N           29.31389395747662       -1.43478441647500        0.06954312800201
C           27.96908194186635       -1.25613556041385        0.23406304711267
C           27.29660950988962       -0.03384455361049        0.15656161963677
C           27.97794122622587        1.17780472106179        0.01338517075906
C           27.31979153361258        2.43294374004037       -0.16370775838927
C           28.28376916892770        3.38419759258326       -0.13273372904590
C           29.52609170351612        2.70610379823096        0.08511125742043
N           29.32996632326632        1.34320632631386        0.11366334433794
C           30.72601123583493        3.34852025346951        0.34832096615127
C           30.75063205746676        4.82712062139328        0.44289397676616
C           29.97106230886309        5.48450838702961        1.39473391117086
C           30.00287820096725        6.87115805511957        1.48459747318204
O           29.25711653791671        7.51929893550720        2.41200901686822
C           30.80871526309160        7.60622855861490        0.61366551744254
O           30.81661017047524        8.97171361134986        0.72260136487130
C           31.58343782729771        6.94976764653280       -0.33932289503389
O           32.34541660395551        7.73841978923783       -1.16061318714484
C           31.56232232265342        5.56349628239572       -0.42449093305753
C           31.90826106747816        2.64395892708115        0.53763332253869
C           33.15500153007665        3.25042023404807        0.90187933971867
C           34.09363373248876        2.27597179748915        0.85318274507825
C           33.41860224195970        1.07660522344095        0.46164249766870
N           32.07024452789176        1.29847339976759        0.32985614022279
H           35.14973044942009       -0.10996636765682        0.16786741494415
H           35.14061016250412       -2.53954714300849       -0.77475637158295
H           33.22879416400875       -4.41792438351088       -1.08842767785851
H           31.08431981043728       -4.80485076318301       -2.66542449651055
H           31.08354107950619       -8.33177050570997       -3.14213093826609
H           30.47243785178751       -9.45827141709189       -0.26943406492914
H           30.02533735065976       -7.55788772835577        2.19983960922739
H           30.23250039131601       -5.33954244966938        1.51854188698268
H           28.10316623884619       -4.54090468007511        0.16746730156576
H           26.23350369556777       -2.62498521639285        0.49044552718587
H           26.25637750771359        2.55337540196553       -0.29351504832417
H           28.17420029356122        4.45069900627466       -0.24220471220882
H           29.35336282925870        4.92380096094077        2.08425747717360
H           29.41430929221344        8.47333216423738        2.31823280357428
H           31.42251135863484        9.32182763047975        0.05038598347122
H           32.84322635714060        7.19972608692114       -1.78935777628816
H           32.15896171506261        5.05966882790784       -1.17580605116700
H           33.28124052566579        4.28888249662721        1.16217913844441
H           35.15174574045890        2.34525631511721        1.04939908041888
C           23.32740877820551       -0.01562901342959        0.22600730026243
C           22.09828331029030       -0.00839651149323        0.22829693449652
C           20.75517306700521       -0.00246773145191        0.21929476543162
C           19.53076287420199        0.00329712939832        0.19837825757647
C           24.67047592800806       -0.01930019929735        0.21328634222213
C           25.89465459104077       -0.02539667723014        0.19008322295647
