248
 energy: -432.539707872546 gnorm: 0.000742021713 xtb: 6.5.1 (b24c23e)
C           24.84943357056449        0.07776141825142       -0.09178705030624
C           25.45807767819219        1.29988142929265        0.16315923246539
C           24.80688449452158        2.54928530867944        0.36453425201333
C           25.76740698276848        3.49152661854873        0.60233989634913
C           27.03642078735792        2.84626458198961        0.56103324121076
N           26.79954143775792        1.53006519775126        0.28391238405636
C           28.29842150744974        3.42557002400606        0.73720233847306
C           28.32429399669866        4.87142450255117        1.06193570065915
C           28.95557934663722        5.79294789745210        0.22714146608689
C           28.94791163490934        7.13491681082248        0.57348205550716
N           28.36527007251886        7.59562433495328        1.67577824387484
C           27.76313774106762        6.72393724647322        2.47827599767680
C           27.71370884976675        5.36409868434605        2.21499917405431
C           29.51470037086296        2.74739051679011        0.63065064358957
C           30.80999117094146        3.36166065911910        0.86138392993749
C           31.73162994591947        2.39793156615245        0.65764700424579
N           29.67097601283455        1.43118318273421        0.31749301266824
C           30.99775919092619        1.19425208355180        0.31711729949690
C           31.63674112504530       -0.03082464657581        0.03489429033265
C           31.00201328945435       -1.25666970309586       -0.24278902337253
C           31.64785434559534       -2.48888690897365       -0.52802085822687
C           30.68171677202033       -3.43700533480045       -0.72056576579226
C           29.41473441628948       -2.81214708139862       -0.55327462271309
N           29.66053262459193       -1.49377381241929       -0.27363740212266
C           28.15310741545507       -3.40258164650600       -0.68025607859436
C           28.12486587286841       -4.85786963752449       -0.95684909872199
C           28.68005942699032       -5.77427735165495       -0.06395207142857
C           28.62827996067316       -7.12655443772216       -0.36311903875488
N           28.07537864836827       -7.60185738830448       -1.47439107570511
C           27.54651714411521       -6.73519197655065       -2.33232079338322
C           27.54459536416569       -5.36578461091805       -2.11877657955436
C           26.93530614456864       -2.72360321645104       -0.56678722061123
C           25.63018848984618       -3.35845174331745       -0.66659516616095
C           24.71651399091428       -2.37988008444302       -0.50880855890279
C           25.46194685117469       -1.15116607951155       -0.29815961851885
N           26.79462381886708       -1.39758410466152       -0.33240631225193
H           23.76469515794562        0.09326166272537       -0.12499341383604
H           23.73926056278146        2.69547494997164        0.32514786581086
H           25.61667361756030        4.54370325758849        0.78143826967029
H           27.52480348148134        0.82820395674958        0.18090754596287
H           29.43168146015482        5.46527113978999       -0.68927106478596
H           29.42962979432454        7.87160344596377       -0.06277181305064
H           27.29897278784570        7.12981227281124        3.37239673630105
H           27.22267660028671        4.68918145744443        2.90606120116535
H           30.97032371851922        4.38719588210971        1.15182539159708
H           32.80492081807109        2.46615332728993        0.73461548619495
H           32.71633456980608       -2.62209265667999       -0.58066922672691
H           30.82993014941257       -4.47547827537609       -0.96781432399011
H           28.93731660978183       -0.79877883941722       -0.12006278014758
H           29.12991414916939       -5.43397201437324        0.86125059498717
H           29.04920378888075       -7.85895273141641        0.31960099032082
H           27.10499617931719       -7.15371673889552       -3.23205011888670
H           27.11350641151041       -4.69621579605562       -2.85344243050444
H           25.46099204476376       -4.41142942516792       -0.82417605553024
H           23.64027354389815       -2.45241226800459       -0.51863833282438
C           95.06886965958199       -0.06867709140803       -0.00175012348833
C           94.45549194895401       -1.26310687622966       -0.35681081533356
C           95.10272677542511       -2.47040227322452       -0.74304272311302
C           94.13720221233909       -3.40215516687131       -1.00111586155784
C           92.86883045339700       -2.79677362940528       -0.77055050484918
N           93.11147520267728       -1.50648041990373       -0.39416242391713
C           91.60306656049742       -3.37651099728280       -0.91378407682966
C           91.56673354035833       -4.80264069342269       -1.31555811733730
C           90.95300337498824       -5.20500848695383       -2.50138741945021
C           90.94905434305151       -6.54929559828568       -2.83824974264753
N           91.50369006228843       -7.48829409635094       -2.07832263590808
C           92.08777127736501       -7.11397537750456       -0.94473884971398
C           92.14732849610299       -5.79421612661674       -0.52541964842063
C           90.38983052468903       -2.71651069414815       -0.70610307703390
C           89.09100127246585       -3.35895816894781       -0.79977873926455
C           88.17373279416712       -2.40681093098280       -0.53214538633074
N           90.23976814694380       -1.40573666108964       -0.36915050368414
C           88.91349815756986       -1.18767354502742       -0.26788801543422
C           88.28017376409768        0.03464907169298        0.03770193224482
C           88.92016030254180        1.25206321223968        0.33931377598276
C           88.27974124165203        2.48829139942438        0.61911097376936
C           89.24967319188741        3.41799129633920        0.87297946966787
C           90.51344508493787        2.77394733099119        0.76475019913486
N           90.26221703127436        1.46915964978899        0.43119945534203
C           91.77786916477893        3.34729685656917        0.93542980193537
C           91.81539450516767        4.77680065041884        1.32232295350615
C           91.23341952495163        5.22323055093882        2.50859041128458
C           91.29698072140796        6.57038921131171        2.82791487971490
N           91.88644446690365        7.47236484838598        2.04979910739545
C           92.44168135823861        7.05595953462117        0.91616614290627
C           92.43412250994396        5.72987884234004        0.51365871705124
C           92.99251323865181        2.67321630983725        0.76938008414415
C           94.29871071858344        3.26921537234318        1.00437415232709
C           95.20895908550858        2.31069707869499        0.73996303404199
C           94.46008114872986        1.12748064157093        0.35410183975921
N           93.12860897341167        1.38003689929673        0.39237424571006
H           96.15415179633131       -0.08084518492118       -0.00551760196864
H           96.17133878530659       -2.59481544053049       -0.81606951434932
H           94.28460726311239       -4.41791372423855       -1.33030151607347
H           92.38859660421544       -0.82835542199551       -0.17773493740299
H           90.49924723468014       -4.47282767894278       -3.15855413157831
H           90.48116504787788       -6.88597405939721       -3.75872801518596
H           92.52841085336794       -7.90397074129940       -0.34360080428140
H           92.62257055817615       -5.53819753648133        0.41411169411047
H           88.92602382607113       -4.40000917020848       -1.02514799280903
H           87.09966180099511       -2.49644875092944       -0.50283523257764
H           87.21220645713659        2.63842439033000        0.61797612728096
H           89.10580072721002        4.46055590645248        1.10505696313278
H           90.98209966603173        0.77201558942997        0.27174363981852
H           90.75414224614428        4.52216505479129        3.18157915307804
H           90.85542323630480        6.94035312581087        3.74867412159927
H           92.91341637417352        7.81644910400163        0.30077757773569
H           92.88799099275255        5.43879617142341       -0.42610805226309
H           94.47020137358415        4.27960168440831        1.33895517925985
H           96.28466200234806        2.36576087834085        0.79886228866428
C           33.04155739284882       -0.04554285126845        0.03255386932676
C           34.26670800891826       -0.05825930920092        0.02111903806685
C           35.60791877632569       -0.06525528939977        0.00885710654129
C           36.83981661594785       -0.06976344249130       -0.00423134142520
C           38.17465485374518       -0.06984605512095       -0.01990335479646
C           39.40834764301368       -0.06968053173063       -0.03322217444861
C           40.74313405749116       -0.06803871122867       -0.04478704267791
C           41.97525836330541       -0.06333341661221       -0.04914878729242
C           43.31618400082183       -0.06066282459824       -0.05131126184859
C           44.54161130662895       -0.05259263338781       -0.05319491961229
C           54.20893709143157       -0.00491577474732       -0.00815650030201
C           55.43452188584846       -0.00258652021908       -0.00810864087124
C           56.77512508721927       -0.00273031392430       -0.00751284279137
C           58.00741762178624       -0.00479721010525       -0.01053109781990
C           59.34187352509909       -0.00582449148230       -0.01127648808224
C           60.57582109260128       -0.00392343604365       -0.01543474136293
C           61.91025622312252       -0.00411802353611       -0.01642669956896
C           63.14256134419561       -0.00131835930762       -0.01621866875098
C           64.48318255147424        0.00230695085720       -0.01820195172407
C           65.70866749963788        0.01126018463873       -0.02326159087892
C           75.37570062161265        0.05545191130659        0.01466760137761
C           76.60106874208395        0.06661206669735        0.02529395434254
C           77.94185324271828        0.07405309294789        0.03609012074691
C           79.17396238837820        0.08001823644638        0.04080363500135
C           80.50868237749764        0.08531412079393        0.04855347499866
C           81.74242586489966        0.08631414348184        0.05057906650064
C           83.07727608966667        0.08509305108691        0.05277494020183
C           84.30925769723038        0.07872039362785        0.05159038667954
C           85.65038836331269        0.06923036661260        0.04951381946622
C           86.87549096893605        0.05301824324951        0.04473595320749
C           45.94543488780966       -0.04633035665134       -0.04810673712613
C           46.57598105163238       -1.27631498204518        0.22418309997968
C           45.92960157562235       -2.50501108652805        0.51650110492636
C           46.89643798931505       -3.45375618926556        0.70873367189219
C           48.16196092340950       -2.83181146972656        0.52991913572787
N           47.91749607311121       -1.51441369596214        0.24780367806184
C           49.42347067040325       -3.42974435003044        0.63837638828165
C           49.43979027531032       -4.88402085569026        0.92791310030432
C           50.02021028755495       -5.38293701782119        2.09345649521051
C           50.00673352678155       -6.74958604024217        2.32356083460143
N           49.46623798892647       -7.62117925395015        1.47815989320888
C           48.91409064354947       -7.15434133761165        0.36307561279700
C           48.87357498618533       -5.80524279986457        0.04756662190627
C           50.64763579507471       -2.77523639131093        0.49645939310744
C           51.93514458109070       -3.44366300056754        0.55874032632663
C           52.87056153120545       -2.48899666034432        0.37626687247080
N           50.82196822321012       -1.44489663228326        0.26229621534043
C           52.15278185012512       -1.24250053771660        0.19524095761367
C           52.80549873568009       -0.00989314172572       -0.01127711156638
C           52.17489577180349        1.23167111856919       -0.22379882846766
C           52.82047266931781        2.48251178005330       -0.40205730635894
C           51.85352466103154        3.43187026190239       -0.59019145910044
C           50.58879013345525        2.78466707078634       -0.54143726492583
N           50.83385605560267        1.45784133500457       -0.30791478331935
C           49.32774677058379        3.37603788168277       -0.68276027610561
C           49.31101945419410        4.83263310614355       -0.96014335790247
C           48.71534300647323        5.73106311851797       -0.07570460917163
C           48.72841233776690        7.08400758806332       -0.37616683340944
N           49.28232878897325        7.57563728555578       -1.47982909110820
C           49.84932968069663        6.72580338063126       -2.32987898840486
C           49.89171567372037        5.35728198778315       -2.11428708192001
C           48.10371090459215        2.71223402221520       -0.58691135140449
C           46.81742076144695        3.35206901010580       -0.79806567915081
C           45.88181852794294        2.39645951833502       -0.62134417181781
C           46.59825087148808        1.17496612139504       -0.31141931286065
N           47.92904118275820        1.39115622951951       -0.30745329815516
H           44.86121937744082       -2.63596065549295        0.57538443575800
H           46.74789265103349       -4.49089468609112        0.96107800945671
H           48.63809478541111       -0.81874893692994        0.08638308954686
H           50.46186921734635       -4.70826010965491        2.81701367165519
H           50.44838025815489       -7.16133344497754        3.22628704440210
H           48.48401327646824       -7.89100691015465       -0.30913712176307
H           48.42341334621452       -5.47196539737775       -0.87999025850721
H           52.08134865902564       -4.50109159658568        0.70784221293968
H           53.94355501731088       -2.59276247701698        0.35530351392376
H           53.88825319881997        2.62917618049825       -0.38170418477110
H           52.00109460713421        4.48876678877735       -0.74054872224695
H           50.11464091728521        0.74923051721221       -0.20861922314470
H           48.26210892402167        5.37633234675944        0.84222871824133
H           48.27494621065398        7.80343281455563        0.29934424163111
H           50.29013622500658        7.15714861294360       -3.22389180183971
H           50.35435736806284        4.70113381556179       -2.84198177266005
H           46.67235460522705        4.38777762437899       -1.05889307567611
H           44.80955628247198        2.48183059622781       -0.69537016565288
C           67.11211240256581        0.01537441460270       -0.02590818251430
C           67.74225296165534       -1.21517026652655        0.24462069382491
C           67.09605276512853       -2.44292298995810        0.54134833727009
C           68.06276312632458       -3.39375305109020        0.72347158198286
C           69.32794897713725       -2.77391998945870        0.53463572673945
N           69.08340336368769       -1.45552995713998        0.25701468326638
C           70.58910575565648       -3.37427588184234        0.63109374550082
C           70.60479155539835       -4.83021288191816        0.91157632451236
C           71.19440131751227       -5.33823942745388        2.06852498774218
C           71.17965786536406       -6.70637793819879        2.28955791114820
N           70.62937455242940       -7.57099899611620        1.44330355304430
C           70.06813078223479       -7.09546053256227        0.33644832976090
C           70.02812953670531       -5.74423345116928        0.03035826690221
C           71.81341350078957       -2.71999461260432        0.48685646204560
C           73.10061462653861       -3.38980056051972        0.54083194309385
C           74.03636603019997       -2.43380111208138        0.36707911425657
N           71.98797194309140       -1.38817705756190        0.26311291533569
C           73.31910494229554       -1.18555029634886        0.19732282642448
C           73.97209867301910        0.04836875141082        0.00126318309413
C           73.34188544383194        1.28973767003231       -0.21351259888605
C           73.98735758620336        2.54006409955294       -0.39511508713332
C           73.02057781225491        3.48765325044108       -0.59334436402683
C           71.75619783591257        2.83999758454846       -0.54576114384266
N           72.00094430509562        1.51466300592385       -0.30439911479623
C           70.49518572074543        3.43072546362034       -0.69208227532171
C           70.48016699970195        4.88554093488248       -0.97912218464820
C           69.88865487511815        5.79104796512253       -0.09916209118044
C           69.90455635625798        7.14202623419134       -0.40817874551668
N           70.45741264186853        7.62523494813354       -1.51603867230907
C           71.02037802990692        6.76854802888414       -2.36187532403982
C           71.05974466128842        5.40129762753124       -2.13772996592430
C           69.27110870625724        2.76871081498480       -0.58999278306080
C           67.98450916278112        3.40871574346079       -0.79874937942728
C           67.04867022650181        2.45551550332470       -0.61083112785528
C           67.76540330226094        1.23478119160358       -0.29804802008300
N           69.09609160141326        1.44915360740555       -0.30208671650922
H           66.02804367479625       -2.57239570405534        0.60957507313067
H           67.91447781377254       -4.43094707657939        0.97575006816465
H           69.80287362971055       -0.75997919302262        0.09018758882260
H           71.64400086230157       -4.66943673630531        2.79267179615347
H           71.62848982758602       -7.12519780847799        3.18545166395569
H           69.63003617499604       -7.82658829462167       -0.33666914248341
H           69.57029801883336       -5.40356395133000       -0.89074041964439
H           73.24627431842823       -4.44872935457884        0.67932457394710
H           75.10928763069178       -2.53772481156989        0.34374031519766
H           75.05492941477279        2.68767434148576       -0.37128205536620
H           73.16823028416673        4.54364875243319       -0.74988759873253
H           71.28183074894839        0.80612323566805       -0.20381712002736
H           69.43665863155748        5.44338904020211        0.82204746892776
H           69.45458164937683        7.86689465152167        0.26384406949437
H           71.46055410709732        7.19309684108182       -3.25938178733810
H           71.51952309535177        4.73943791425062       -2.86205458529862
H           67.83945114465165        4.44305083106753       -1.06499221073438
H           65.97608433259761        2.54175679604164       -0.67904962701615
