282
 energy: -441.030319662252 gnorm: 0.000533370846 xtb: 6.5.1 (b24c23e)
Zn          46.38836385329820        0.04493177927526       -0.10436525851421
C           42.98055859167722        0.12839038505271       -0.23310501410807
C           43.61726341176530        1.32285612363853        0.08250970993332
C           42.95075922675674        2.55796523043384        0.38733991690469
C           43.91488428853317        3.47346407459685        0.65710825158400
C           45.18368290483588        2.81060419237024        0.51094943249776
N           44.96729221939310        1.50756443173668        0.16886545823615
C           46.43688873078279        3.40056188336939        0.71392381615788
C           47.67107662052774        2.75115946901372        0.60725173430836
C           48.95424089606144        3.37757572211491        0.76636764538673
C           49.89512616070801        2.41930760136236        0.56720175425186
N           47.85755099929045        1.42825436493703        0.30513778505185
C           49.19786731764493        1.20035164482388        0.27926423600004
C           49.82125579314801       -0.03452590499328        0.00802284958755
C           49.16024107325546       -1.24222538033633       -0.29421117120169
C           49.82036130652423       -2.47914422838163       -0.59251744778366
C           48.85135347935061       -3.39419577462353       -0.85106652826359
C           47.58756251655541       -2.72621858193515       -0.70532702724384
C           46.33445175644437       -3.31495825874975       -0.90576949156352
C           46.30974837615840       -4.75968979407830       -1.24921616932016
C           45.79071726302246       -5.18397624746732       -2.47008862140666
C           45.76392392360576       -6.53739085970201       -2.79650536098682
C           45.19333122403559       -6.97672044013164       -4.11813648965630
C           46.25846507192948       -7.46665130707925       -1.88918549045988
C           46.77987370429938       -7.05831996297646       -0.66305313176631
C           47.31683594709346       -8.08064318724364        0.30216877908155
C           46.80442819653731       -5.70526174842105       -0.34983414593315
C           45.10036735182244       -2.66022221460612       -0.81112312671058
C           43.81165396541684       -3.27910602162145       -0.97572825782726
C           42.87649863205189       -2.31371986956351       -0.79160052396764
C           43.58069484204718       -1.09583205697839       -0.50295710956920
N           44.92421660641242       -1.33908212619640       -0.51904421359395
N           47.81387574770310       -1.41716648861041       -0.37164119298206
C           46.45666546693281        4.84134277946988        1.07513181525086
C           45.97069134883014        5.79746480448728        0.18392779442091
C           45.98477269511603        7.14681503343840        0.51841009806282
C           45.48294982100953        8.17937241501079       -0.45485639205769
C           46.48648531681211        7.53778297155687        1.75685950112859
C           46.97390563132486        6.59593160838315        2.65727888850919
C           47.49090557022267        7.02452259557240        4.00419993002779
C           46.95822539086543        5.24890206711152        2.30996335340832
H           41.89542986375489        0.15139471011128       -0.26080019069183
H           41.88050241804636        2.69382480778074        0.39788232033068
H           43.78355898843837        4.50543114932962        0.94106650224711
H           49.11270969656282        4.42048454700632        0.98935104022049
H           50.96799375510041        2.52239735434088        0.60548490520100
H           50.88950068423268       -2.62022936370947       -0.60717240087232
H           48.97951285357325       -4.42795678608752       -1.12915862227835
H           45.41982462084464       -4.44980307585665       -3.17712371651946
H           45.35714350237657       -8.04184149148616       -4.28075615422750
H           44.11898322453464       -6.78354211860315       -4.14539004580003
H           45.65490787571992       -6.42188365797564       -4.93643647376252
H           46.23935586533607       -8.52324331692847       -2.13610391445175
H           47.56206268902778       -7.62286160995778        1.26033514784956
H           46.58339572315149       -8.87117643100659        0.46848802766215
H           48.22061141958917       -8.54042273297592       -0.10297920133434
H           47.19461726875608       -5.37563186019702        0.60692884466900
H           43.64768049272114       -4.32267226786554       -1.19219328050771
H           41.80269833245249       -2.40816332199181       -0.83725770459455
H           45.59407950628891        5.48152943735837       -0.78287263375401
H           44.95696794820603        8.97929100491563        0.06734821575435
H           44.80882582277363        7.73157735892945       -1.18507030529817
H           46.32388219028410        8.62282582241437       -0.99293174772481
H           46.49730105799411        8.59000641969661        2.02228942309017
H           46.68165595207070        6.99835694419043        4.73765881904319
H           47.88123217832091        8.04168156426518        3.96553783846029
H           48.28046887929793        6.35557974581995        4.34739599907462
H           47.32383509979346        4.50435563676928        3.00878627384328
Zn          86.83655151154410        0.04583663034013       -0.09408152810241
C           90.24258683614977        0.16242216966389       -0.21986353933864
C           89.60769549533285       -0.51084751222309       -1.25682469863708
C           90.27608598452187       -1.17875344882131       -2.33850528130694
C           89.31397367440863       -1.72901836432430       -3.12067347017156
C           88.04414297423099       -1.39563364050030       -2.53123601205181
N           88.25838059911172       -0.66227341642251       -1.40069363777052
C           86.79277419172378       -1.78678744755193       -3.02187540652570
C           85.55835478493077       -1.49682445997021       -2.43083484535384
C           84.27586455795321       -1.86023380535671       -2.96800419512033
C           83.33420456965533       -1.37850951102882       -2.11743768987470
N           85.37051922395548       -0.79402138375858       -1.27092070810083
C           84.02955591680684       -0.70995014339656       -1.05657364733263
C           83.40471423457592       -0.05006083669022        0.01905107208242
C           84.06138591526506        0.63688026409875        1.05792391084344
C           83.39942037572808        1.31765119432982        2.13216646480983
C           84.36721639072518        1.84652791842603        2.92349374219717
C           85.63230654326944        1.48919528259636        2.34277351056608
C           86.88469203878564        1.85418331738329        2.84871315907386
C           86.90471302585570        2.61651327471017        4.12332853050415
C           87.42396104161679        3.90810498712086        4.16668480768059
C           87.44307988733311        4.62385194062258        5.36116695897968
C           88.00981710744612        6.01805159315704        5.38842903170224
C           86.94208158702935        4.03532421666689        6.51611376671230
C           86.42185020947888        2.74270685333363        6.48980871240844
C           85.87963118288079        2.12571486027490        7.75085912179644
C           86.40334656416435        2.04042433185567        5.29164310613738
C           88.11979103563952        1.56004302712914        2.25903977297713
C           89.40785922282092        1.90767712506782        2.79866293474647
C           90.34395342978061        1.44039832003651        1.93517333249630
C           89.64120638079093        0.79153975124570        0.86375385280414
N           88.29757715477220        0.87774909952441        1.09075818884867
N           85.40833806391629        0.76126658815552        1.20515271662187
C           86.77336086944960       -2.57519914912200       -4.28061029998987
C           87.25317942336603       -2.01903918384235       -5.46583027207622
C           87.23486257024663       -2.75053246677925       -6.64816300064481
C           87.72995266116493       -2.13885308068023       -7.93112297408739
C           86.73358176175914       -4.04917618032473       -6.63947265170342
C           86.25201137841631       -4.61866892441248       -5.46498740077189
C           85.73286512942713       -6.03138129820916       -5.46001985122939
C           86.27398426205559       -3.87659013692222       -4.28856307783735
H           91.32750861115345        0.18847361519431       -0.25293417544275
H           91.34629239671469       -1.22145887739974       -2.46838625070776
H           89.44732149850299       -2.31965581184794       -4.01297910315164
H           84.11801319355082       -2.40271078884749       -3.88628840291327
H           82.26173702932509       -1.45845442797257       -2.19807857442230
H           82.32995516824396        1.38227917172245        2.25540335634542
H           84.23836053398908        2.43840293777007        3.81540238828103
H           87.80009725152212        4.36383319925646        3.25724656088432
H           87.86639209554092        6.47980896939398        6.36514941767601
H           89.07936502937757        5.99352702044779        5.17017281072912
H           87.52727041509220        6.64011204127726        4.63281008012535
H           86.95592410490585        4.58656229828241        7.45083764458797
H           85.63460610808224        1.07481978633200        7.59783087599195
H           86.61001755362804        2.20164484945098        8.55786816782275
H           84.97487986257173        2.64962606551350        8.06596807914433
H           86.01319328939131        1.02905864080687        5.26010015896881
H           89.57051480553682        2.43268760471425        3.72639713971063
H           91.41758644999969        1.51544558159997        2.01090535108334
H           87.62755477400060       -1.00112183478008       -5.46325802736736
H           88.23526169533282       -2.88475312323191       -8.54549369195367
H           88.42049696540984       -1.31948900303720       -7.73112964021363
H           86.88768914159870       -1.74358497343851       -8.50361883626563
H           86.71763559673742       -4.62363616789910       -7.56005785730152
H           86.54463243039510       -6.72461686765289       -5.22769619835956
H           85.32631638007099       -6.29947643873038       -6.43542000445385
H           84.95492437577225       -6.15613712933993       -4.70640943299727
H           85.91394328413193       -4.31474828930182       -3.36404412783075
C           52.44899730301515       -0.07597465625957        0.03424540429456
C           51.22681185931695       -0.05972042476777        0.02686143397414
C           53.79853330116094       -0.08777525001636        0.03777436253963
C           55.02094723172754       -0.09169733065040        0.03644186198129
C           65.93472590196275       -0.07148653149594        0.00329349707387
C           64.71203034733315       -0.07059761358488        0.00157235424427
C           67.28368173834346       -0.07273207759780        0.00709333984060
C           68.50634984387638       -0.07596859609349        0.01163082103108
C           79.42254607989614       -0.09707605528290        0.07569809360347
C           78.20121126975820       -0.10622224430091        0.07828136388110
C           80.77480195575644       -0.08475364159607        0.06807165413046
C           81.99575193013551       -0.06839311174880        0.04882740648438
Zn          59.86738269747832       -0.08241690530721        0.01396767516353
C           56.42624467813614       -0.09087057542593        0.03181237598683
C           57.06727012057522        1.16037090485574       -0.07409436784287
C           56.38737447914374        2.41954029102208       -0.14602203167480
C           57.34108830530193        3.37970106844628       -0.25868572766917
C           58.61328837918256        2.71373732542099       -0.26467985594748
N           58.40998958355435        1.36527516711982       -0.13937693254817
C           59.85677520423845        3.34734763304266       -0.36505562336496
C           61.10446722874378        2.71643579956658       -0.31782505332467
C           62.37325067502701        3.37272171280956       -0.46430868346585
C           63.33261111044528        2.41739766663138       -0.35803589052497
N           61.31571249171886        1.37446716865881       -0.14234914958626
C           62.65957796528652        1.16863962675535       -0.15687697100817
C           63.30736248734861       -0.07364231668149        0.00251635114120
C           62.66668641847544       -1.31957079376440        0.16240725576800
C           63.34717787207652       -2.56628835877025        0.35123885988229
C           62.39326498509132       -3.52692076291125        0.45831250883633
C           61.12031729884983       -2.87562575000859        0.32673469067989
C           59.87642897977380       -3.51290438228916        0.38378999284127
C           59.88031044373871       -4.98898760022453        0.55161709747133
C           59.32588247619363       -5.56649837319261        1.69208920782413
C           59.32781185299165       -6.94814692096653        1.85780193797498
C           58.74906301207401       -7.55968450147240        3.10527997080875
C           59.88630439901483       -7.75195683303084        0.86988436979311
C           60.44070468540357       -7.19010155120805       -0.27763599324404
C           61.04757271862963       -8.07624911192306       -1.33196474679618
C           60.43808552535971       -5.80864045456837       -0.42955110131382
C           58.62875793561712       -2.88540739215040        0.30110319942308
C           57.35978878671606       -3.55747857895412        0.30979454905649
C           56.40022980902688       -2.60170539489845        0.20960154431939
C           57.07334052771527       -1.33927063451586        0.13095595340568
N           58.41768004879295       -1.53773600598464        0.18082348945531
N           61.32374556415924       -1.53175642213569        0.15697919635743
C           59.84983162547276        4.82198381844390       -0.54331160534918
C           60.42444466202065        5.65279956616993        0.41694541262158
C           60.41540715366148        7.03439542302673        0.25321432921205
C           61.05095901926780        7.92299942302884        1.28842321521721
C           59.83098035879472        7.58266668781276       -0.88399552207724
C           59.25338693096650        6.76627875750055       -1.85252498520929
C           58.64080275877092        7.37088467165658       -3.08714767924551
C           59.26500653805373        5.38734063411602       -1.67620705888340
H           55.31705075591945        2.54625985439398       -0.10851804398244
H           57.19742453252787        4.44642896428406       -0.32044440956995
H           62.51120375112698        4.42789994182251       -0.63734798085518
H           64.40250955910400        2.53944967691387       -0.41736612606778
H           64.41806321537028       -2.68371290438317        0.40125425546135
H           62.53726975853350       -4.58272813761827        0.62241603601560
H           58.90271352890918       -4.92900492869499        2.46078488560912
H           58.44261204851252       -8.59066839894242        2.92792839212144
H           59.49760052734192       -7.55837854513307        3.90098000085834
H           57.88682569554746       -6.98924654698948        3.45181904245585
H           59.88804968906432       -8.83032135856174        0.99187596944332
H           61.21335414583301       -7.52518923674857       -2.25755306273858
H           60.39692656123712       -8.92667432124442       -1.54010567587900
H           62.00815684456344       -8.46392030437448       -0.98570680568293
H           60.85498925780882       -5.35938546979126       -1.32434057195668
H           57.22238681081900       -4.62497440151735        0.37298315428387
H           55.33008786127478       -2.73313878828077        0.18464176014060
H           60.86397275164934        5.21525350263462        1.30673102298212
H           60.60291477072156        8.91674144785201        1.27679387660991
H           62.11850102960838        8.02825810791860        1.08156239273796
H           60.94034727826558        7.49692810176437        2.28592144666480
H           59.82153040294808        8.65974352784080       -1.01645749479322
H           58.16672837202403        8.32537448247788       -2.85652370947471
H           57.89654301326504        6.70219881970247       -3.51983966265062
H           59.41520801553979        7.54983725160097       -3.83661202559125
H           58.82851739376323        4.74016217414332       -2.42918959783938
Zn          73.35205039430288       -0.09265397679453        0.04220912886440
C           69.91111540888853       -0.08051259789964        0.01861509813838
C           70.56050089379747        1.16516024658887       -0.10115474746700
C           69.88883617699250        2.42692076726047       -0.20136063723458
C           70.84973849540333        3.38106528253476       -0.30268051919451
C           72.11837764918303        2.70870099401250       -0.27294120455141
N           71.90519318693390        1.36222536913481       -0.14164020791013
C           73.36691542589132        3.33554921188595       -0.34078211643231
C           74.61011350346956        2.69855711886492       -0.26209989642237
C           75.88486776677010        3.35070292709235       -0.37457926183917
C           76.83738244327525        2.39060368558631       -0.25548556189597
N           74.81106624389305        1.35531246452526       -0.09059441159094
C           76.15486151913558        1.14266397552475       -0.07930344224333
C           76.79240110803219       -0.10414894742452        0.07085350090120
C           76.14478878255764       -1.34668627747268        0.21079949283738
C           76.81606905038568       -2.59902188036450        0.39837705597718
C           75.85535010550760       -3.55302082760690        0.50025327048785
C           74.58697105190942       -2.89257361942527        0.36559085889411
C           73.33825161892695       -3.52117225979491        0.42189215504172
C           73.33047577330242       -4.99687432478442        0.59242688281855
C           72.76486180170944       -5.56847118871140        1.73074485982170
C           72.75128320493886       -6.94973481312990        1.89650520748651
C           72.15805727042383       -7.55535686241312        3.14005642413748
C           73.30688375083882       -7.75981269825139        0.91153585641145
C           73.87298970324899       -7.20416976333427       -0.23270156095835
C           74.48218585518410       -8.09231739573845       -1.28398100156816
C           73.88494256290764       -5.82234545178222       -0.38519889942359
C           72.09524394243493       -2.88552996187461        0.33479612100659
C           70.82164401218739       -3.54912901006518        0.34454114065930
C           69.86884611668050       -2.58806612452810        0.23287072529635
C           70.55047631807724       -1.33077172584078        0.14503171854001
N           71.89313352977727       -1.53732833410975        0.20345275370068
N           74.79960892919527       -1.55060255184235        0.19853795578402
C           73.37354252966526        4.81100758947782       -0.51341529631024
C           73.91768117245360        5.63292320706068        0.47217767251497
C           73.92284840412573        7.01505690159248        0.31637604266657
C           74.52497978454979        7.89517073216770        1.37840591759474
C           73.38402938250978        7.57321093328083       -0.83883639172201
C           72.83773527147173        6.76593065228491       -1.83235575079661
C           72.27579815624688        7.37909807498606       -3.08668565002832
C           72.83408534601365        5.38562512470054       -1.66347682046388
H           68.81858838573558        2.55917792442765       -0.18818949389194
H           70.71336552334537        4.44781577510145       -0.37905545316304
H           76.03082730265791        4.40671144668511       -0.53552001080307
H           77.90876764536203        2.50849629954637       -0.29083042403960
H           77.88598661683105       -2.72326983115411        0.45272135403623
H           75.99132589113560       -4.61003394277990        0.66352849333960
H           72.34415590431102       -4.92633956734367        2.49692881240049
H           71.83074867342029       -8.57891708709021        2.95699261787600
H           72.90512562485247       -7.57359408329300        3.93692019969115
H           71.30713585863965       -6.96905850385298        3.48806081737570
H           73.29586631904546       -8.83805480135026        1.03397035643853
H           74.51985276426555       -7.58541599222113       -2.24825433488920
H           73.90944024811715       -9.01399427768033       -1.39142223985884
H           75.50234217810140       -8.35929479588255       -0.99865419603160
H           74.31011047562629       -5.37819417347182       -1.27866588335006
H           70.67661007821289       -4.61510145589811        0.41546812443888
H           68.79801114418279       -2.71297281684904        0.20466530108195
H           74.32210795972556        5.18711288606731        1.37441462993741
H           74.04147970241254        8.87216490922214        1.39419053692267
H           75.58808159144510        8.04530263647408        1.17635432404250
H           74.42874646206432        7.43699465823387        2.36297714560938
H           73.38635600779944        8.65105750767294       -0.96513914239119
H           71.84637911122577        8.35984154606946       -2.88055409330247
H           71.50627432294289        6.74036164507828       -3.52061348015718
H           73.07002396539673        7.50517034264008       -3.82615156949538
H           72.42129651623708        4.74544078666720       -2.43556348392988
