112
 energy: -198.785486857730 gnorm: 0.000392385281 xtb: 6.5.1 (b24c23e)
Co          12.39606027782349       -0.04744040363982        0.00402339759308
C            9.02048426809038       -0.07377497850784       -0.08469756460726
C            9.68527443226227       -1.27538401295755       -0.19782884890847
C            9.02294664719801       -2.53771959315765       -0.32708422869334
C            9.97589478656711       -3.49015366464240       -0.20114564829276
C           11.22190793608295       -2.80764696923200       -0.00715199500650
N           11.03906043534374       -1.44880452652770       -0.05184511046623
C           12.40891074238376       -3.44168242534197        0.33256113329827
C           12.41280257092849       -4.91372733165574        0.50320104682362
C           12.64270492225353       -5.49532836249149        1.74885416660462
C           12.63602888764646       -6.87702765697758        1.85948045013315
N           12.42325640536403       -7.68518206945380        0.82606385770208
C           12.20542521680308       -7.13773744505188       -0.36522815400342
C           12.18837676674392       -5.76767409525926       -0.57522778083619
C           13.59260750909769       -2.74378920888370        0.51442894990410
C           14.84436645225853       -3.36468454338690        0.82835599981014
C           15.79477201650876       -2.40624583612640        0.71745113994446
N           13.77346192660145       -1.40477473953914        0.24983337678265
C           15.12243521292736       -1.20534671578085        0.33467322551005
C           15.79287511993527       -0.03290321265354       -0.02192128610638
C           15.10893172843773        1.13643542219378       -0.36122175630414
C           15.76490246709072        2.34365512498944       -0.75278361409842
C           14.80634848905565        3.29722673961083       -0.83358203593603
C           13.56887365542415        2.66899973903849       -0.48093873965067
N           13.75950636916756        1.32485517712273       -0.25401896798880
C           12.37459091946687        3.35129567829441       -0.30541389562836
C           12.36676578699874        4.82567363786776       -0.42989194617071
C           11.57910187977409        5.46782190671471       -1.38479790547367
C           11.61129713723075        6.85090037968742       -1.46781550950859
N           12.35916198005519        7.60724320711226       -0.67081938639817
C           13.11049083878767        7.00331594681209        0.24427001942686
C           13.15014745973628        5.62676960520701        0.40031135938872
C           11.18559210826776        2.69034957950386       -0.02718040088558
C            9.93210019359202        3.34960408613771        0.19498593993956
C            8.98540964966304        2.38313135291268        0.24325752808715
C            9.66392803418737        1.13539724442272        0.06795323896373
N           11.01789974913467        1.32930593145828       -0.04193238524561
H            7.93706328029738       -0.08137213255108       -0.10295401988629
H            7.96111511426871       -2.65817908397985       -0.47139853409293
H            9.85714532981274       -4.56135826019870       -0.21606404570012
H           12.81040291019071       -4.87469399277559        2.62095832174186
H           12.80883440540921       -7.35452938069155        2.81956081392786
H           12.03766262030160       -7.82434427721153       -1.18984173801742
H           12.01813563539812       -5.36550822426588       -1.56674327670812
H           14.97074334747594       -4.40544222350828        1.07796163607724
H           16.85962548205561       -2.49159745315199        0.86242178178725
H           16.82415765107622        2.43425859169891       -0.93162003452488
H           14.91612630829428        4.33434451079545       -1.10514394038418
H           10.96362978191727        4.89115139467603       -2.06492021478741
H           11.01082980531391        7.37326964305513       -2.20682268220804
H           13.70856604118240        7.64820214199551        0.88144857146307
H           13.76962418234396        5.17858975642896        1.16798905656576
H            9.80685775898459        4.41545038363257        0.29569818841514
H            7.92083960227114        2.48504192880609        0.38161563567805
Co          25.78987595285929        0.04770286152743       -0.00724659920089
C           29.16566024072783        0.04635180363032       -0.10018912034863
C           28.50110517293938        1.16363083933949       -0.55691264486124
C           29.16378928698221        2.33369293103885       -1.04744395352743
C           28.21101441245311        3.28164717814642       -1.20453714219477
C           26.96477519809757        2.68520627168002       -0.82103398375502
N           27.14727525038668        1.37207951858817       -0.46844244400794
C           25.77761969258427        3.39065545589126       -0.68204541900618
C           25.77363116131134        4.84859670228851       -0.94750721197573
C           25.54208337966110        5.76766899898489        0.07448751398745
C           25.54821348514188        7.12168863415976       -0.22214221527387
N           25.76187325591510        7.59391139733336       -1.44593811228651
C           25.98128503001199        6.72334359280642       -2.42588226946248
C           25.99905346939827        5.35153153819150       -2.22767167469923
C           24.59336287619795        2.77591658793661       -0.30666297672617
C           23.34132755536189        3.46132908322698       -0.18991548454677
C           22.39077206822136        2.51221536416599       -0.01735064456772
N           24.41242166381846        1.41797595008722       -0.16938456617824
C           23.06332090346288        1.25196623691874       -0.03150925626460
C           22.39299054526291        0.02645585024627       -0.03085026556295
C           23.07696122253990       -1.19097020812326       -0.01446526508753
C           22.42090766182011       -2.45981564895073       -0.03850729331633
C           23.37924640116202       -3.39573823853631        0.16215760099907
C           24.61667238140419       -2.69221237727601        0.31760449884228
N           24.42635916469249       -1.34013031520200        0.14357289268179
C           25.81079280068064       -3.29459431328852        0.68339520076550
C           25.81824090081530       -4.74171900607531        0.99192923521209
C           26.60455594212435       -5.63330526316805        0.26296182585894
C           26.57242650198825       -6.98107257230357        0.58431517284607
N           25.82604718668593       -7.47371899718318        1.56752935725652
C           25.07604073278610       -6.63028896388708        2.26938951127137
C           25.03616149632266       -5.26758895811758        2.01972468900918
C           27.00027128011276       -2.58205392660665        0.75672849321059
C           28.25398512318146       -3.14936791875021        1.15876822359771
C           29.20083304230546       -2.21077324394322        0.92397961792665
C           28.52215733042943       -1.06682634353121        0.39595888110525
N           27.16812509757853       -1.28380761673641        0.34783963478019
H           30.24908547942487        0.04815836042985       -0.11993505754305
H           30.22565678420903        2.40673653711559       -1.22028770774160
H           28.32997298855776        4.30203254376824       -1.53076272786437
H           25.37336594332931        5.42787556947231        1.08934860010628
H           25.37386286959081        7.85802010051803        0.55697976357547
H           26.14977538043394        7.14007174186332       -3.41456486194818
H           26.17053871727934        4.67809429674368       -3.05886878437070
H           23.21486742314117        4.52956511205994       -0.25578888083720
H           21.32569408789130        2.63610543968982        0.09442585589642
H           21.36177321057301       -2.59830166671136       -0.18436039558682
H           23.26953954066472       -4.46701874646253        0.20379652732836
H           27.21905250166714       -5.27854694827102       -0.55587859614617
H           27.17232978110881       -7.69528345225017        0.02782340426327
H           24.47855690137451       -7.06279640387315        3.06666466112970
H           24.41736874154486       -4.61613315496179        2.62527133419041
H           28.37945268550146       -4.14055463136507        1.56337587647160
H           30.26561828085477       -2.26897644206273        1.08429950599651
C           18.41852489820765       -0.01187016262705       -0.03718801369440
C           17.19631724536421       -0.02562929645861       -0.03098292215003
C           19.76742168274628        0.00141561502586       -0.03902498885277
C           20.98955575367423        0.01681441317401       -0.03774258775603
