124
 energy: -223.821943853381 gnorm: 0.000451798557 xtb: 6.5.1 (b24c23e)
Co          13.62671047085006        0.05607173037158       -0.01068796323324
C           10.24167903577697        0.11539160370785       -0.01058945901209
C           10.90517774231780        0.78249178662535        0.99609911541408
C           10.24714128173811        1.49825847317205        2.04652881678429
C           11.21391825076307        2.15171500877331        2.73404266698728
C           12.45558914475013        1.83362707410878        2.09791005985591
N           12.26651195188560        0.95752297117527        1.06662151816398
C           13.66483718923966        2.45211477356808        2.41562464781268
C           13.68470852028857        3.45106101072890        3.41231029072990
C           13.71316501725471        4.31142143115098        4.26739097625719
C           13.75476745303822        5.31607088535181        5.26129303653373
C           14.95605596685719        5.95294392885258        5.59443726505989
C           14.94694128063403        6.93141737090843        6.57239964357561
N           13.84489120130253        7.30280418626107        7.21898983367922
C           12.69894178902795        6.70263987492700        6.90756589464504
C           12.60028383644659        5.71288695113292        5.94574659348177
C           14.85509706915840        2.12436071039187        1.76964297151776
C           16.10393096619380        2.76131738284876        2.04588115108649
C           17.04889112993464        2.07730903453869        1.35555842144790
N           15.02092621148059        1.08724661673121        0.88783809046252
C           16.36964554105029        1.02704181562495        0.66569136623925
C           17.03192397399809        0.00528889394272       -0.02015233267736
C           16.33982680831609       -1.00660537669395       -0.69044739644396
C           16.98673407670308       -2.07870067061783       -1.37791280019823
C           16.01617351005439       -2.75669286177040       -2.03801004371901
C           14.78489767230953       -2.09102700256418       -1.75008054061623
N           14.98598773629233       -1.04635064095510       -0.88422372151165
C           13.58055012247725       -2.39644405320855       -2.37993728999529
C           13.55804536149141       -3.41315211870009       -3.35847412269421
C           13.53733052566801       -4.28845811835732       -4.19852740087820
C           13.51203825095226       -5.30745438628246       -5.17828335164170
C           14.67417374430768       -6.00194660413309       -5.53365585024154
C           14.59498328948158       -6.99097786102243       -6.49788742863220
N           13.46075375288843       -7.31999864624864       -7.11080836273353
C           12.35150120426724       -6.66481839123976       -6.77811780976502
C           12.32317353005692       -5.65981423254933       -5.82769044446411
C           12.39494622851492       -1.72647668923082       -2.07595138290061
C           11.14601076613014       -1.99655728261583       -2.71991635547649
C           10.20443269208212       -1.28571611680263       -2.05464785801413
C           10.88437152635922       -0.58709085372943       -1.00670101938896
N           12.23611604911674       -0.83014992601590       -1.05749326625325
H            9.15826729544787        0.14088118371161       -0.01684526804103
H            9.18139458021173        1.49775283257157        2.21097635235858
H           11.11452795500550        2.80551729038852        3.58569609370268
H           15.87650729908845        5.68086234231217        5.09211600664080
H           15.86446786106386        7.44134611214231        6.85160973001389
H           11.81952136375034        7.03019902815793        7.45449944141041
H           11.64627579562001        5.25044967099207        5.72331516692423
H           16.22615795504057        3.61314087609755        2.69531337167447
H           18.11285771696262        2.24643485693515        1.31754366465928
H           18.04818813681305       -2.26608365571783       -1.35787437520772
H           16.11019731142263       -3.61973688160234       -2.67728553160932
H           15.61896992077550       -5.76583672558364       -5.05918092792652
H           15.48085378393261       -7.54540322225902       -6.79380958281553
H           11.44409414284248       -6.95870459810346       -7.29779280788212
H           11.39733414002179       -5.15149594232988       -5.58694414765980
H           11.02426990338162       -2.65763154571094       -3.56297461803515
H            9.14191105439973       -1.23626342211104       -2.23207001802591
Co          32.17249507382417       -0.02281617476111       -0.05544612583098
C           35.55768464282462       -0.05303240504270       -0.10600662774730
C           34.89445670588485       -1.25954400134472       -0.16176886694904
C           35.55283552465352       -2.52824711326396       -0.23705278381994
C           34.58617922846696       -3.45406761560072       -0.44382696499265
C           33.34428590364681       -2.74517058361805       -0.49691199170396
N           33.53309432673136       -1.41031566636181       -0.27481452915821
C           32.13501538517621       -3.33574488733453       -0.86371387303750
C           32.11541177485884       -4.70423556057475       -1.20796255625665
C           32.08617062505105       -5.87947012182369       -1.50834289920473
C           32.04508287477977       -7.24761042001268       -1.86250407325594
C           30.84402347026339       -7.86069595157425       -2.23825232634570
C           30.85392150852759       -9.20174111718235       -2.57793653432153
N           31.95645569358145       -9.94659893801788       -2.56623320367751
C           33.10205264956256       -9.37118306251059       -2.21004353517066
C           33.19993277155884       -8.03817609758612       -1.85241794129014
C           30.94466825661794       -2.61338730886379       -0.91421226952237
C           29.69597543017423       -3.17806331423998       -1.31850802534297
C           28.75095532562634       -2.23409950023162       -1.08777260440051
N           30.77867330454458       -1.32383470829622       -0.47812016715110
C           29.42996364236645       -1.10226438667657       -0.54159042649165
C           28.76718888207785        0.01146500275411       -0.01881823855528
C           29.45868580040881        1.10692972321301        0.50462314273155
C           28.81119863244476        2.24797115377619        1.06962432571566
C           29.78170190623408        3.16229445522647        1.31365579021252
C           31.01346581055398        2.57271490879287        0.89267494732534
N           30.81266662601644        1.29316660143395        0.44104471564292
C           32.21819245215579        3.26951162624610        0.83329449806223
C           32.24047272716547        4.63121632403429        1.20343050468980
C           32.26121387107913        5.80145337614323        1.52337092815493
C           32.28547367541089        7.16530429461476        1.89524927689042
C           31.12251519260037        7.82596168392587        2.30783623450936
C           31.20035649207776        9.16130857688083        2.66129222115352
N           32.33404125078641        9.85714442482237        2.62952816323295
C           33.44402404563610        9.23613515007226        2.23880487330750
C           33.47370996412886        7.90449133342221        1.86464710872783
C           33.40407710017457        2.66451282501308        0.41545883611039
C           34.65302526103358        3.35586376745076        0.31735999204829
C           35.59468255718445        2.42020168273039        0.04851145882373
C           34.91478347229988        1.16226899594030       -0.01383797268498
N           33.56299570890758        1.33045717011065        0.16861709689620
H           36.64108970489693       -0.06050094688571       -0.13137251020806
H           36.61868737081042       -2.66876909610822       -0.15304621130439
H           34.68584042350059       -4.52057035155393       -0.56750700109969
H           29.92318703842078       -7.29052856871933       -2.26155160256930
H           29.93675974006118       -9.70309115490759       -2.87335951168699
H           33.98195080519392      -10.00807138561458       -2.21190743393038
H           34.15367520578580       -7.60976567822077       -1.56902655362890
H           29.57398829859325       -4.17317141602145       -1.71495075181292
H           27.68707601332033       -2.28834797788437       -1.25302282672153
H           27.74947987429672        2.32754487278166        1.23882462687383
H           29.68731886298520        4.15430312284840        1.72521195096776
H           30.17814509042655        7.29677014920721        2.34827671346103
H           30.31388407409621        9.69920801752016        2.98469358529119
H           34.35095369760429        9.83371147163516        2.22473656099187
H           34.40012716147220        7.43768500238349        1.55257769627161
H           34.77467363476185        4.41865409643089        0.45245183837164
H           36.65722278484537        2.54715262038188       -0.08476881237126
C           18.43378114271375       -0.00513617285960       -0.02914445066215
C           19.65901561917617       -0.00600642790501       -0.02990500599977
C           21.00000070818211       -0.00339010799718       -0.02878858628708
C           22.23157201310087        0.00538788137414       -0.02484055087546
C           23.56756085057643        0.01429930286674       -0.02102271937533
C           24.79913571009925        0.02312576121979       -0.01664484319486
C           26.14008367807914        0.02541982355919       -0.01552608570389
C           27.36535786270771        0.02416713874042       -0.01518380155839
