165
 energy: -291.951767992847 gnorm: 0.000372790025 xtb: 6.5.1 (b24c23e)
Fe          27.33444232837702       -0.02590513411682       -0.00652951648448
C           23.95034769928845       -0.03417218627465        0.01920486486952
C           24.59901411359934       -1.25231058623941        0.01738619327153
C           23.92321654661369       -2.51485842232353        0.02167779999432
C           24.87728145486184       -3.46544545972701        0.15948531601957
C           26.13662691598759       -2.78210738092832        0.23497877493705
N           25.95372980479332       -1.43095845817681        0.11769756055550
C           27.34530738084956       -3.40601432889319        0.52564769382861
C           27.34930290526163       -4.87282248136938        0.73807260615398
C           27.64769268742309       -5.42645472482860        1.98183393944503
C           27.63773214793471       -6.80513465561757        2.12601744054915
N           27.35986212360678       -7.63600663767118        1.12671255799466
C           27.07609034664813       -7.11537538891054       -0.06274209115499
C           27.05533111023244       -5.75070088732329       -0.30409710842267
C           28.54632399623026       -2.71776014184012        0.62344202752204
C           29.80541321703514       -3.33614926311092        0.91621029592046
C           30.75363294553226       -2.37918740933524        0.77381373701461
N           28.72772965944039       -1.38716640712627        0.33018862546276
C           30.07443785546110       -1.18202565223348        0.38658289366032
C           30.73759719059176       -0.01694957729153       -0.01712332352901
C           30.06299011411236        1.14366326808747       -0.41427445725155
C           30.72618617664296        2.33216764905712       -0.85172860717442
C           29.77108900152915        3.28401237678260       -0.98581077714030
C           28.52678211988954        2.67478638688470       -0.62038106855105
N           28.71808502223219        1.34799718126126       -0.31938102689580
C           27.32226348062526        3.35848885991811       -0.52325236388912
C           27.32151828665353        4.82347638364168       -0.73405780660757
C           26.57338496872009        5.41303462067078       -1.75241514206828
C           26.60875413992249        6.79009926630377       -1.90569176669918
N           27.32326074472737        7.58867556240385       -1.11940128961840
C           28.03761894248346        7.03497111189618       -0.14484628971095
C           28.07123133062888        5.66858005680346        0.08374853798985
C           26.11791566070219        2.72459874888357       -0.23429786022624
C           24.86224743309615        3.40349808204259       -0.09066719573329
C           23.91444694770476        2.44715523484363        0.05276632678762
C           24.59311907980632        1.18694019100447        0.01163442409821
N           25.94455588106564        1.37211296629204       -0.11897106976031
H           22.86624701965002       -0.03679605856772        0.03150060260491
H           22.85471079166654       -2.63696995103225       -0.05803432672441
H           24.75105617588656       -4.53400079931507        0.22352372390159
H           27.86973991525547       -4.78687448433542        2.82765104368475
H           27.86286295915404       -7.26096251796058        3.08574120380864
H           26.85508026021988       -7.81985309781087       -0.85922806079162
H           26.82846052549774       -5.37048636112123       -1.29292630888496
H           29.93891955025752       -4.37307793063752        1.17787278603266
H           31.82095350718469       -2.46812023621323        0.89646901784798
H           31.78706044267258        2.41640286915321       -1.02379346814258
H           29.88813417397680        4.30639440059265       -1.30625737257858
H           25.98583611879449        4.80056008665019       -2.42584366720423
H           26.03871868943765        7.27203314889802       -2.69457776524502
H           28.60833967810560        7.71345683818640        0.48241479877899
H           28.65880014143321        5.26194037693097        0.89821145748076
H           24.73527078517802        4.47386069442602       -0.09856471396294
H           22.84956849202138        2.56472724127082        0.17598667118366
Fe          49.03385446145847        0.05376065414741       -0.01206919868539
C           52.42688953645965        0.05538999426500       -0.06057518578573
C           51.77764039300578        1.22397322617734       -0.40063559264384
C           52.45970720830746        2.43059746559733       -0.76019235613726
C           51.50779809582586        3.37751290587733       -0.93058795306677
C           50.24422739030629        2.74409677220158       -0.68439744926588
N           50.42238864595706        1.42379622899781       -0.37250993267590
C           49.02751251639258        3.41752312423856       -0.67946369212550
C           49.02573679353965        4.87169844434447       -0.96629995240878
C           48.65313989843265        5.80102783273434        0.00350280407155
C           48.67017742293182        7.15035192299588       -0.31348789820805
N           49.02331475215724        7.60890413674190       -1.50984932721001
C           49.37773858709263        6.72873279560299       -2.44043025387498
C           49.39718672571797        5.36081777082339       -2.21772637874134
C           47.81592592006902        2.79177802600597       -0.42515706977928
C           46.55240133087724        3.46685594105791       -0.44758258870214
C           45.60169912849246        2.52026098120477       -0.26382737108790
N           47.63349513724927        1.44489122841745       -0.21632010907010
C           46.28353194294703        1.27031300368980       -0.13908138407088
C           45.61765677165371        0.04612104428007        0.00157767184966
C           46.29158083128940       -1.17217678759853        0.15415530556125
C           45.62049118112029       -2.42955948297513        0.25996278204697
C           46.57669873652945       -3.36637893173257        0.46556253869895
C           47.83172550682357       -2.67602633967553        0.48489708074913
N           47.64150041801825       -1.33339817291203        0.25961834307516
C           49.04995477392755       -3.29798585449033        0.71811427672783
C           49.05472097792864       -4.74550518352630        1.03164504094094
C           49.68707041542981       -5.66632274461251        0.19724965359194
C           49.66019641887532       -7.01085508950788        0.53279722321845
N           49.06091557126545       -7.47294986765189        1.62537092881824
C           48.45802400713926       -6.60129215390134        2.42737561897339
C           48.42495421232027       -5.23917715241024        2.17348170994622
C           50.26630434311659       -2.62622443769375        0.66258246901495
C           51.53466184280921       -3.24305792897921        0.92507588052984
C           52.48107726822097       -2.30285428924206        0.69586641236437
C           51.78899576380972       -1.11085854501921        0.30798152061451
N           50.43381227786069       -1.31231905773812        0.31916464515429
H           53.51100858009309        0.05629234736946       -0.07501280929568
H           53.53008940928040        2.52375164926866       -0.85259486861400
H           51.63758354753690        4.41645994845371       -1.18639816705671
H           48.36818947480943        5.47302031047059        0.99598427410829
H           48.38780102123813        7.89424399142121        0.42570758721455
H           49.65896428529561        7.13406274440907       -3.40797644636568
H           49.68294610172561        4.67890033932781       -3.00965292395440
H           46.41906449590820        4.52552903307925       -0.59842330037563
H           44.53232026123121        2.64427607111550       -0.21751242914493
H           44.55495062833806       -2.56652191734674        0.17735151261917
H           46.45415636385445       -4.43062352840543        0.58297087166127
H           50.17862717386301       -5.33624727963788       -0.71009948672554
H           50.14128905188235       -7.74783290929839       -0.10356668462100
H           47.97922919200838       -7.00923909596770        3.31273070922001
H           47.92979923660676       -4.56359859518509        2.86072821308494
H           51.66984675364972       -4.26312111829432        1.24592067489456
H           53.55287262974194       -2.38813301076650        0.77903286476882
C           32.14182353217105       -0.01396481131274       -0.02811955270995
C           33.36024149044353       -0.00989301347102       -0.03488684123083
C           42.99381917156072        0.03112300965482       -0.01798346179402
C           44.21316432374257        0.03975077405092       -0.00927382782377
Fe          38.17611170256193        0.00075230671234       -0.03842825095208
C           34.76369659677257       -0.01208210107719       -0.04206839601114
C           35.43846423718492       -0.81536644227295        0.88585225990152
C           34.77779863897018       -1.59298236131136        1.88588531381827
C           35.73654023343446       -2.32480959503636        2.50514368032559
C           36.97810690012567       -1.99510067810903        1.87262582865795
N           36.78403337088255       -1.03197441749292        0.91386611784883
C           38.18638011225424       -2.62691999451242        2.14303815452131
C           38.19450073488586       -3.75010371988535        3.10650546297272
C           37.43751146972529       -4.90044603123554        2.88706934009949
C           37.47876147888452       -5.92394713290017        3.82073683732481
N           38.20678386033627       -5.86266776532238        4.93094875189850
C           38.92910141645976       -4.76856161608432        5.14910865633162
C           38.95801237940920       -3.69570602685996        4.27229673354539
C           39.38831496403314       -2.24717717538794        1.55746195320410
C           40.63552381952257       -2.91408576714523        1.77946368579300
C           41.58903555737485       -2.16789891529140        1.17008771755667
N           39.57448996508014       -1.13977346369311        0.76660867444801
C           40.92085992475204       -1.05861864760594        0.56706618081541
C           41.59050771700956        0.01895871801007       -0.02975530451174
C           40.91074481369629        1.08058807137178       -0.64304057906475
C           41.56708627123474        2.19596199887800       -1.24794072534817
C           40.61038488765630        2.91167696670345       -1.88834071709434
C           39.37283283664646        2.22335732901842       -1.67821652885961
N           39.56735849244997        1.12859800089138       -0.87275335713340
C           38.17053117233939        2.57868549047948       -2.27881929552475
C           38.17225501764256        3.68973613879294       -3.25628237957744
C           38.94262382149865        3.62847603325085       -4.41714549357859
C           38.90700176921308        4.68964589471965       -5.30788599643268
N           38.17261542273638        5.77905256879473       -5.10730695020402
C           37.43900181437706        5.84746044224398       -4.00122396699186
C           37.40340485155212        4.83555661469894       -3.05481459131605
C           36.96657719237092        1.94273172542727       -1.99985071399724
C           35.72049413012988        2.26503388304431       -2.62768754645192
C           34.76465138073515        1.54947347955607       -1.98560549168409
C           35.43209931877206        0.78407814198923       -0.98063794214329
N           36.77853709501841        0.99118770591329       -1.02784045107453
H           33.71800975789960       -1.57056314355024        2.08166172885323
H           35.62222339303946       -3.02117287157657        3.31965938906777
H           36.83865588339432       -4.99910667755891        1.98960688702582
H           36.90177767547523       -6.83154574443270        3.66993867564039
H           39.51082938904120       -4.74736102730981        6.06591201969565
H           39.55184174590638       -2.81788834743841        4.49738825449101
H           40.75765199491501       -3.83236085881108        2.33011372484768
H           42.65195858302209       -2.34008289801823        1.13341910759518
H           42.62513568309479        2.39190968695840       -1.19213641187495
H           40.72378581975847        3.82416526973916       -2.45041747126013
H           39.54704288440007        2.75426009072616       -4.62760628780442
H           39.49388111500480        4.66297276405870       -6.22128020581953
H           36.85210802536779        6.75099757766451       -3.86482598033603
H           36.79963000038141        4.93992562124127       -2.16127490643928
H           35.60096173288467        2.94770260488934       -3.45295293624180
H           33.70276703143981        1.52912189273243       -2.16995985502839
