128
 energy: -234.204689937513 gnorm: 0.000708544279 xtb: 6.5.1 (b24c23e)
Cu          13.27231395460982        0.02204310836220       -0.03658890800689
C            9.86647262094357        0.07312282571187       -0.09369925399694
C           10.50573988784057        1.29540154026942        0.04800147704600
C            9.83467067002064        2.55368831787747        0.20844378276606
C           10.79649865387993        3.49960321571619        0.34446749893069
C           12.06509635678353        2.82803288195240        0.25670493982002
N           11.85716664037071        1.49051630149375        0.08279024804636
C           13.31271716976986        3.44664127597242        0.36948728881294
C           13.33091200665288        4.91671354711885        0.56381844400604
C           13.86001465449505        5.46612416209028        1.73562100442374
C           13.86892039046154        6.83482007227397        1.92260799221366
C           13.35498934146480        7.68655429903932        0.93914923372009
C           13.37662732284921        9.14356859321882        1.16164010313426
O           13.81629865437869        9.66282706148573        2.15538507613274
C           12.83065515164381        7.13905034271125       -0.23425078454551
C           12.81632171721274        5.76776553209077       -0.41789951244416
C           14.54376130542400        2.78947650716331        0.31899614391901
C           15.82347754342550        3.43764521762389        0.37691129207909
C           16.76598983675778        2.46738258290585        0.26932776749614
N           14.72728497925106        1.44077003717906        0.16686969203180
C           16.07022197141779        1.22223417526108        0.13961778772193
C           16.70219013915610       -0.02589938016890       -0.00453502099196
C           16.03918665622561       -1.25731090286319       -0.14965816577373
C           16.70289689571583       -2.51512058820620       -0.31812898743800
C           15.73587629650141       -3.46069513424118       -0.42937721121524
C           14.47294735048108       -2.78618481774139       -0.32197885950672
N           14.69098013142859       -1.44358900880115       -0.16154590621352
C           13.22456502737832       -3.40723109655533       -0.40398800286074
C           13.20119947972026       -4.88204694975333       -0.55415170358037
C           12.63135292437719       -5.46717792186233       -1.68851538249972
C           12.60261569147155       -6.84319102570740       -1.82884042386109
C           13.13971424607979       -7.66336844714897       -0.83361666181405
C           13.11565877442738       -9.13206162733399       -0.95643442239585
O           13.56237878961973       -9.88110047867170       -0.12559872793606
C           13.70987555335511       -7.07843982619834        0.30206258041909
C           13.74266797014423       -5.70411463736333        0.43888711437149
C           11.99333499751459       -2.74782326980281       -0.35486994824622
C           10.70746908587931       -3.39101887884179       -0.39214490767126
C            9.77065962889643       -2.41425953248878       -0.31099792569673
C           10.47424314086692       -1.16756460640328       -0.21171521071517
N           11.82028011860889       -1.39951319780540       -0.23489934548699
H            8.78144567087095        0.08734259612529       -0.09784662916086
H            8.76375691513775        2.68123890270703        0.22216080740062
H           10.66539200837409        4.55789627467315        0.50296433934521
H           14.24845004222674        4.80750505142166        2.50426126000156
H           14.27121447843665        7.26864779720967        2.83178570437329
H           12.94771269591637        9.73836411258716        0.32710188476158
H           12.43414107068164        7.79311470281242       -1.00410494900853
H           12.41895629075011        5.34622809481821       -1.33442013569768
H           15.97702607909748        4.50026365052957        0.47265669445725
H           17.83863458167484        2.57618932976763        0.27135813807362
H           17.77248704003659       -2.64697220294726       -0.35137326322165
H           15.86263029983770       -4.51982022709644       -0.58462052362658
H           12.22422385737213       -4.83306743454661       -2.46811976971820
H           12.16225794903823       -7.28845555295820       -2.71518139374715
H           12.64269763241604       -9.50353106442496       -1.89053940045555
H           14.12159434859741       -7.72313579875939        1.07116865598585
H           14.17286359585081       -5.25435953742900        1.32663664401228
H           10.54821712991188       -4.45528216669903       -0.45742804953749
H            8.69684444381272       -2.51529353967659       -0.30838104085470
Cu          31.87786280285478       -0.01989212377104       -0.04004519932366
C           35.28377130987054       -0.05992752651228       -0.10340073118294
C           34.64539971614494       -1.29031110435894       -0.14012593058954
C           35.31734490641247       -2.55810233249639       -0.16388740745808
C           34.35619162633324       -3.51443934043282       -0.16422409429324
C           33.08712850673808       -2.83813388275318       -0.15221704255656
N           33.29412202915587       -1.48936247669061       -0.13226934661875
C           31.83999871036742       -3.46734347178987       -0.12633065637019
C           31.82270423119969       -4.95016342127514       -0.14258168260242
C           31.29817251209493       -5.66042789970354        0.94151241245199
C           31.28973435991906       -7.04181270122490        0.93245441257390
C           31.79933515038531       -7.74519879628928       -0.16403504573930
C           31.77755790154148       -9.21901870692755       -0.15062874874077
O           31.34280641596442       -9.87409964875273        0.76163106874992
C           32.31928286879013       -7.03656851236066       -1.24988816387540
C           32.33333769607874       -5.65308808939762       -1.23710040963397
C           30.60852954446435       -2.81060691288303       -0.08063300408119
C           29.32931230407575       -3.46158628871041       -0.11280387644589
C           28.38599367676858       -2.48664998370904       -0.08112234772343
N           30.42389211023075       -1.45414447343676       -0.04037370078409
C           29.08072945864825       -1.23508479606237       -0.03488253190690
C           28.44790756438388        0.02044066084624       -0.00177459703711
C           29.11008400440965        1.26055901555570        0.02760961348633
C           28.44541999260357        2.52906721043865        0.03652426245530
C           29.41171231700918        3.48158953069440        0.06116495407264
C           30.67508324192524        2.79958464154135        0.07506898828905
N           30.45808301401136        1.44760704879162        0.04409924924739
C           31.92305460856271        3.42674560977003        0.08532638255066
C           31.94564980276269        4.90786634587147        0.14662714256515
C           32.52001722719243        5.64845741217255       -0.89048418089261
C           32.54906377091238        7.03039066567611       -0.83322634767517
C           32.00764040106707        7.70060998186455        0.26646836561282
C           32.03293331543995        9.17177139894619        0.35487233596459
O           31.58244458181156        9.79499364117701        1.28191480151006
C           31.43242960725484        6.96008377187769        1.30461711484900
C           31.39942510090548        5.58029366136074        1.24416851311441
C           33.15480893574139        2.76774731111379        0.04296937685936
C           34.44015023049538        3.41037980951049        0.10151724527633
C           35.37769019900916        2.43272793870906        0.04245258285672
C           34.67505267097618        1.18433805227408       -0.04066822327014
N           33.32883980166854        1.41632555525880       -0.03215306244856
H           36.36880384256006       -0.07254503991674       -0.10941792216451
H           36.38835038616500       -2.68551228602229       -0.17040358441562
H           34.48806718268876       -4.58443621206729       -0.16036766963258
H           30.91288206743812       -5.11765308901959        1.79731787356307
H           30.89091914253355       -7.60040482498066        1.77244551795899
H           32.20355403338998       -9.68951522574337       -1.06272302783052
H           32.71250576575203       -7.57464415156104       -2.10635737814893
H           32.72733613024796       -5.10561349150619       -2.08601032291982
H           29.17667612542908       -4.52722075522237       -0.16761941138363
H           27.31340745143307       -2.59552627929659       -0.09295413810264
H           27.37577008211890        2.66349302821891        0.02018592501558
H           29.28412991469865        4.55192442120255        0.05600157174147
H           32.93057074086821        5.13170777062315       -1.75072636473594
H           32.99327858008440        7.59723710089705       -1.64508861948031
H           32.50973755296318        9.67228958557792       -0.51500304798150
H           31.01716566260209        7.48879304623907        2.15589701057244
H           30.96541140151470        5.00886760264167        2.05692463708346
H           34.59853048311713        4.47299720554711        0.19112964076557
H           36.45140344098822        2.53303115371794        0.06166232221716
C           18.10807414438861       -0.03834840808044       -0.00881190327214
C           19.33250586403910       -0.03336937004330       -0.01153170431388
C           20.67553270908073       -0.02334075977253       -0.01187397412730
C           21.90596531786962       -0.00487812279308       -0.01201690705423
C           23.24413818706379        0.01121090596162       -0.00848445626028
C           24.47461222083525        0.02553437164230       -0.00815451631042
C           25.81766052967585        0.03197595948853       -0.00568768499353
C           27.04207895668908        0.03333883281746       -0.00411152469347
