123
 energy: -224.803257248721 gnorm: 0.000368543594 xtb: 6.5.1 (b24c23e)
Fe          11.04940795977044       -0.01616814835298       -0.01819331429126
C            7.63715409973039       -0.05091623035349       -0.03219839325084
C            8.29728169637248       -0.90352458422623       -0.89321491200320
C            7.63174905075347       -1.80123219790555       -1.79164555114601
C            8.59992151894977       -2.46532645121415       -2.46552263375084
C            9.85396834948148       -1.97187768755054       -1.97649818225654
N            9.65638020472448       -1.01762178360571       -1.01631933959067
C           11.08087455049252       -2.41715665817562       -2.42817146272726
C           12.29354349544261       -1.95438434423781       -1.96604977849849
C           13.55783200822614       -2.42893072670565       -2.44295220538838
C           14.50968497783205       -1.74828884189669       -1.76089923995409
N           12.47299344477919       -0.99206176113598       -1.00129610587729
C           13.82248692424906       -0.86142143962245       -0.87158917777361
C           14.48144309872282        0.01370372878664        0.00102888236869
C           13.79788953722798        0.87905941518200        0.86417762995547
C           14.45962344347663        1.77965664957649        1.75894207991387
C           13.48849332677041        2.44654795487713        2.42731901856636
C           12.23800153509288        1.94929228004456        1.93723114681138
N           12.44492652672479        0.98765328852280        0.97736648412260
C           11.01230243265985        2.39088985976344        2.38561433046456
C            9.79846839132513        1.92012510878483        1.92453620851598
C            8.53063301224845        2.38825551152964        2.40283854146519
C            7.58176191300675        1.70160548119507        1.72413334046584
C            8.27278195465167        0.81623319267608        0.83274020612196
N            9.62820783024269        0.95946029713195        0.96548781328177
H            6.55308918922948       -0.06253255029167       -0.03601982351635
H            6.56071898117384       -1.89429835463451       -1.87864521198842
H            8.49744067395649       -3.22277151936069       -3.22652602752569
H           11.09047433419838       -3.18230011799637       -3.19635331758031
H           13.68016463136935       -3.18550284706119       -3.20165662491255
H           15.58224820598573       -1.82573559910709       -1.83950912974296
H           15.52979350774772        1.87511111503015        1.84974092933871
H           13.58911703346585        3.20722969917953        3.18511426669576
H           10.99991881795855        3.15807366783935        3.15172159653066
H            8.40643579058519        3.14539088958506        3.16090996210370
H            6.50838338418535        1.77194713130411        1.80318957706712
Fe          48.25224339855740        0.00690224380425       -0.00583719948843
C           51.66430296288544        0.04451478005035       -0.04155571663474
C           51.00228006875471        1.25422201358955       -0.08856255734174
C           51.66578963150496        2.52396996401205       -0.14736889108486
C           50.69663448856374        3.46900865361598       -0.15714505159948
C           49.44364353045461        2.77413967708063       -0.10760167256179
N           49.64311499235648        1.42099364083184       -0.06940721811134
C           48.21647570090275        3.40725518301544       -0.09802282310978
C           47.00482435013209        2.75190004082851       -0.06380567666209
C           45.73970636698720        3.42301745854275       -0.06447325447493
C           44.78902572477190        2.45847184954688       -0.04558548710757
N           46.82725938875141        1.38936184998866       -0.03950481007038
C           45.47749635827817        1.20331603096282       -0.03157245132195
C           44.82077059520105       -0.03291863130427       -0.02565172399967
C           45.50570097411350       -1.25337797467474       -0.00142539161852
C           44.84613413885220       -2.52372774456442        0.02562209418280
C           45.81826772755260       -3.46519462301302        0.08166202052112
C           47.06755984309294       -2.76501373411444        0.08421257491823
N           46.85915125373364       -1.40777977216398        0.02917035532649
C           48.29375220548661       -3.39161005105475        0.13591951546241
C           49.50641228026314       -2.73130929821197        0.11888538724882
C           50.77526535876003       -3.39764797913692        0.15526903149749
C           51.72282361767722       -2.43262412430962        0.09773414731426
C           51.03027869746060       -1.17891089668034        0.03049927388055
N           49.67507824124760       -1.37531873969900        0.04696340062207
H           52.74826332500009        0.05631687813331       -0.05542899526530
H           52.73643645376672        2.65191241744730       -0.17401973801146
H           50.79778216194391        4.54220355247511       -0.19448780150877
H           48.20526920645692        4.49114954857926       -0.12352982741529
H           45.61603569218412        4.49423130452185       -0.08000434881165
H           43.71632456957491        2.56757749095013       -0.04220162856050
H           43.77638213157058       -2.65767816041570        0.00725883833392
H           45.71903475086910       -4.53845335007831        0.11797640562294
H           48.30719516283690       -4.47463119041953        0.18581718749182
H           50.90096689497994       -4.46726271335916        0.21439933625134
H           52.79635875771962       -2.53691294671773        0.10017551154425
C           15.88147688730317        0.02304376174383        0.00945470118725
C           17.10789128495815        0.02642717880707        0.01260719650248
C           18.44688379698434        0.02794164479009        0.01511961791403
C           19.67975201141368        0.02590893813711        0.01390631215344
C           21.01372190853288        0.02230515775849        0.01248832494126
C           22.24671707511613        0.01735829934394        0.00834876944105
C           23.58529459306257        0.01087746590471        0.00492720231015
C           24.81203718270585        0.00292317106955       -0.00013135212182
C           34.48833055842422       -0.06217135952720       -0.03142646100844
C           35.71462910110339       -0.06559315314715       -0.03847566744705
C           37.05410350546394       -0.06790619690024       -0.04268675915801
C           38.28656895912104       -0.06787185351270       -0.04586296731135
C           39.62149832826173       -0.06657650176204       -0.04682324965687
C           40.85377221363659       -0.06306925275863       -0.04459229647554
C           42.19371500222469       -0.05729471974053       -0.04023066588046
C           43.41959887356737       -0.04811262060108       -0.03464031773743
Fe          29.64980533097981       -0.03318857209702       -0.01147229431453
C           26.21094038156955       -0.00710372231527       -0.00330783457656
C           26.89235653105359        0.90697102841746        0.81131626699854
C           26.22813437078793        1.85576875340922        1.65198882196355
C           27.19823633588672        2.56761405891752        2.27489699566063
C           28.44835830787576        2.04851602047376        1.80939437704288
N           28.24469713890431        1.02773934506710        0.91366197858850
C           29.67442679802027        2.53256672036845        2.21465562262520
C           30.89119993636515        2.05149566147341        1.77788178885824
C           32.15118706278372        2.57611642343035        2.20918694620329
C           33.10743197072301        1.85350916624573        1.57731092038247
N           31.07480118902636        1.02009776492197        0.89044423623686
C           32.42504119826599        0.89228261303492        0.76579907661335
C           33.08842676572041       -0.05496414217257       -0.02474872908510
C           32.40727001067268       -0.99604901704627       -0.80741636303074
C           33.07123721106968       -1.96864911834682       -1.62064908271945
C           32.10109734206182       -2.68147867588934       -2.24238619834748
C           30.85119366708565       -2.13938180251051       -1.80338344319810
N           31.05461124548554       -1.10811865194289       -0.92020835430304
C           29.62509552906430       -2.60386478816769       -2.23201622396702
C           28.40855155295723       -2.09978047629745       -1.82254804853962
C           27.14852356573678       -2.59922018727267       -2.28280795624302
C           26.19233340965033       -1.87052676757341       -1.65790318810277
C           26.87482966354786       -0.93170280221436       -0.82063250328751
N           28.22464056981679       -1.07445539729708       -0.92767745352733
H           25.15783030841549        1.95099999666050        1.74061418724655
H           27.09633291052809        3.37289477791675        2.98484450080906
H           29.68265424916265        3.35109443237747        2.92597812212064
H           32.26861985467989        3.39093291902511        2.90574813406546
H           34.17945288212228        1.94707054992176        1.64418288356376
H           34.14146493363521       -2.07580527875513       -1.69548266329411
H           32.20285113883651       -3.49993158304565       -2.93713486055044
H           29.61738578973551       -3.42409746262436       -2.94137374941140
H           27.03106460837770       -3.40367900117933       -2.99128175266733
H           25.12032912144022       -1.94822182055117       -1.74293394484381
