148
 energy: -269.440001146828 gnorm: 0.000622903940 xtb: 6.5.1 (b24c23e)
Co          28.83481534904558        0.31766579977789       -0.62212940747761
C           25.49219893135531        0.00132431580269       -0.37520659324692
C           26.16287335257757       -0.82170575245940       -1.25757021911667
C           25.51979309434768       -1.75854954469100       -2.13135995089919
C           26.47654209176041       -2.23595350311537       -2.96292162164257
C           27.71336876537087       -1.63767064195632       -2.55484794079768
N           27.50656147672166       -0.76542815033708       -1.52033331911969
C           28.95074695284266       -2.00416769773032       -3.04876760153232
C           30.13457116880004       -1.63313090371754       -2.44819884761958
C           31.40344495196662       -2.22897927291344       -2.73921469241573
C           32.27629387198755       -1.75254987959621       -1.81815916312132
N           30.24858791992645       -0.75598613110452       -1.39524397433913
C           31.55403820848458       -0.81931399544252       -1.00889503263895
C           32.15617009043497        0.01024605127465       -0.05391948047213
C           31.48634384243665        1.13326180131259        0.44907979557091
C           32.13675214913359        2.20514436837176        1.13825263029647
C           31.20583588680989        3.17254339672271        1.32468960131681
C           29.97362954728265        2.66098033565786        0.80522030678163
N           30.16860646956907        1.41791598669681        0.24971120958614
C           28.74926299602091        3.26741479594239        0.98594010914095
C           27.55116215203089        2.62452553698641        0.73919995349633
C           26.27595641451232        3.10024388308596        1.18813440552862
C           25.37652981490673        2.12666304899635        0.90899590265518
C           26.09294978354105        1.08491844052285        0.23337426104060
N           27.42522100003720        1.39529226860239        0.15058658357462
H           24.42566367819356       -0.13994373103034       -0.24449934015509
H           24.46512603592406       -1.98385417750535       -2.11451159458131
H           26.37970105416968       -2.95065011308755       -3.76489571688808
H           28.98898808915777       -2.70567215491129       -3.87401043131834
H           31.57788992500901       -2.94185382677457       -3.52938096245905
H           33.32555156659678       -1.97459842861298       -1.70765284365166
H           33.18116827181535        2.21633394140899        1.40549756797472
H           31.31780107835106        4.13534785799072        1.79742945051314
H           28.72268519978641        4.24750040681700        1.44786545747610
H           26.11601920320149        4.04756602247664        1.67838466825843
H           24.31611107326550        2.10965376416136        1.10531463550170
Co          60.18161673975729       -0.19704963138862        0.14356021284904
C           63.17192843874586       -0.82417700923723        1.58236189009819
C           62.74043750679658        0.48456443972927        1.51487185737458
C           63.51270527234940        1.60644082599099        1.96211901082872
C           62.84054246899452        2.71840717766011        1.58108253773592
C           61.63148808538615        2.27361467375225        0.95279170979864
N           61.58593531772419        0.90572078421658        0.90784694199460
C           60.60931467135345        3.11690376950079        0.56527651456869
C           59.35861677252873        2.66314355731117        0.20640174105903
C           58.21415886046773        3.51107504654108        0.06295455943185
C           57.14830542486848        2.69524453244847       -0.12056778803438
N           59.00059201082226        1.34340438047537        0.06242144737405
C           57.65193524230218        1.35598066194998       -0.14386823886369
C           56.87246078527891        0.24384640704839       -0.47918050797474
C           57.45926231501391       -0.98946648075970       -0.78230851323253
C           56.75229521462762       -2.07538115220765       -1.38934700385032
C           57.66884511179100       -3.03439882574655       -1.66388117094355
C           58.92334712586275       -2.55525676228610       -1.16803966249191
N           58.78219965379021       -1.29246059845888       -0.64194023087472
C           60.06762633183160       -3.32086713459132       -1.11267936809275
C           61.18771129177625       -2.94719771762853       -0.39706856194103
C           62.27839003878505       -3.82839548870620       -0.10047351166510
C           63.09924368199280       -3.16067528185185        0.74442542709411
C           62.53776532768654       -1.85307897719872        0.91686769647791
N           61.36067178050751       -1.73904132534461        0.22380694473115
H           64.10382200448375       -1.03562772849216        2.09345813858451
H           64.45888532819934        1.53007241686977        2.47429872975202
H           63.10689423765886        3.75338619631233        1.72699014050813
H           60.76539191161992        4.18638405609322        0.64568395374717
H           58.23875438822233        4.58739298135419        0.12534878203537
H           56.11330431766183        2.96198796542798       -0.26133743749342
H           55.69382477887191       -2.07865828409382       -1.59319176376155
H           57.52219959368022       -3.99609832074620       -2.12933046306085
H           60.04998809997239       -4.30565948330225       -1.56484723642223
H           62.36972976550118       -4.83442186973419       -0.47855481863192
H           64.01961331244343       -3.49366833357588        1.19756394855458
C           33.48905829335965       -0.22015406815647        0.31334855519642
C           34.63514168372626       -0.44803169260277        0.66084092270397
C           43.86506720859054       -0.30411118175017        0.53576742476207
C           44.98634797398575       -0.03430780199378        0.13753125001265
C           54.28294642596512        0.53346653853300       -0.78074706603955
C           55.48536236624059        0.39959702625731       -0.63929577317894
Co          39.27420654515728       -0.96824289468208        1.47874518304616
C           35.96733443455616       -0.68448930628650        1.02229069501567
C           36.59226984135898        0.16289562014910        1.95032737232847
C           35.89655995263345        1.10487163723069        2.77062483297691
C           36.79573161158316        1.58302264057900        3.66768188039131
C           38.05377574491155        0.98328042246388        3.34530102489372
N           37.90482808822588        0.09486264395326        2.30900072520876
C           39.26700914874060        1.37766778949207        3.87598280729366
C           40.47624253696709        1.03735255258788        3.30325410665816
C           41.71829588232150        1.69263741788464        3.57701356195466
C           42.60701184224782        1.24083765747968        2.65627255417587
N           40.62851175782748        0.14422935611309        2.27056824541164
C           41.92487163549471        0.25911130352610        1.87137856973085
C           42.55791803720577       -0.58468875936550        0.94444340610097
C           41.94445641921763       -1.77760476205902        0.52794699831964
C           42.64678014980076       -2.87779099415777       -0.05627950913442
C           41.76662083759235       -3.90788345036651       -0.13334759898577
C           40.51070042052223       -3.40932487719792        0.33711498577964
N           40.64652013149316       -2.11080129986081        0.76587836941554
C           39.30642863050959       -4.07110869253488        0.20563909567754
C           38.08743143427679       -3.43380372102950        0.33918467090014
C           36.84243285855489       -3.95834680591154       -0.13081207800078
C           35.93528952439454       -2.95368071672570       -0.03147772861656
C           36.61192796491173       -1.84389630574115        0.56446932534871
N           37.92282840712651       -2.14527662241818        0.78304289859888
H           34.84604411661871        1.33201817977054        2.68687168617140
H           36.64373315995656        2.30332707729561        4.45568070970825
H           39.26486479309770        2.09360674442859        4.68982940043559
H           41.86577368114229        2.42838289702262        4.35150743908658
H           43.64416950158628        1.50942628698543        2.53571096471327
H           43.68985858029172       -2.86396299707992       -0.32873459549593
H           41.92894305316151       -4.90615104517845       -0.50747620268778
H           39.31642657070232       -5.09453210947226       -0.15137830318165
H           36.70408298509250       -4.95522948818909       -0.51809747480849
H           34.89025548545729       -2.96414763055181       -0.29633215543989
Co          49.52509919885951        0.76953399412872       -1.06763450791005
C           46.27866518445171        0.26299464494295       -0.30713106470645
C           46.88750366432442        1.46155927304596        0.09554671448075
C           46.19380977095607        2.52342771293590        0.75653404760578
C           47.05181838384983        3.57196243164075        0.81897141525812
C           48.28778197699258        3.12292161496659        0.25460598356771
N           48.16135028419330        1.83417029429295       -0.20740277987506
C           49.47299184925141        3.82436529824730        0.32390785357347
C           50.70198305632366        3.24945650017881        0.06275130970600
C           51.95535270938986        3.82763260314039        0.43810528079304
C           52.90315477127150        2.88746149391189        0.19782944824192
N           50.88997150096034        1.99169682142725       -0.45292375073027
C           52.23415056105792        1.76659505590843       -0.38587724016514
C           52.89543373762490        0.66695946814881       -0.94732203541418
C           52.22238386704765       -0.22213972926297       -1.79654370175915
C           52.88291503682283       -1.12468587270389       -2.68756101528771
C           51.92354373097287       -1.66904392319064       -3.47690895284753
C           50.67382420341161       -1.14265180509958       -3.02232419867898
N           50.87543713302143       -0.23907715335100       -2.00832863639862
C           49.44067816519649       -1.60765722660304       -3.43561959567986
C           48.26881881599331       -1.31586416864658       -2.76936671501467
C           47.03778534743856       -2.02118933376573       -2.95445469634454
C           46.19131636505251       -1.58335353537471       -1.98941816581744
C           46.88633326371079       -0.56671146859836       -1.26155364930020
N           48.15283128968409       -0.41473152649052       -1.73802759354899
H           45.17018674046530        2.47134780491008        1.09089025837550
H           46.88966198880714        4.55272010902712        1.23689686906846
H           49.45182137273532        4.83291185806244        0.72061716979734
H           52.07359466916081        4.81206770473803        0.86214160790607
H           53.96598431493353        2.94578761236372        0.36825602750223
H           53.94855707848619       -1.28325347362814       -2.72049637992599
H           52.03293362140674       -2.38606371800191       -4.27485263753613
H           49.40846941171174       -2.33171709258681       -4.24161791672224
H           46.87059246716988       -2.77449681749899       -3.70776253330753
H           45.17376306053789       -1.88526654847416       -1.80042207407991
