238
 energy: -433.897338065197 gnorm: 0.000664597918 xtb: 6.5.1 (b24c23e)
Cu          29.37160563765032       -0.01694330441444       -0.00968341966675
C           25.96503660672368       -0.05258918824457       -0.03653597411926
C           26.60115397867431       -1.27865939682125        0.08520326484764
C           25.92689752505522       -2.53753182861375        0.22661020860020
C           26.88628450389703       -3.48921582894599        0.33760718429633
C           28.15642920748070       -2.82019068832343        0.25742566034965
N           27.95217161059590       -1.47856113751542        0.10931318365609
C           29.40115405124066       -3.44587409341544        0.35528568210287
C           29.41372825503545       -4.92115656387803        0.50990564640212
C           29.92308909977774       -5.52554687183312        1.65826749856387
C           29.91021572204409       -6.90802759645233        1.75653080349809
N           29.43669875946659       -7.69795674356370        0.79829981837409
C           28.95207478236777       -7.12974819035841       -0.30113264448180
C           28.91614237011958       -5.75703748658260       -0.48884506593623
C           30.63391631836420       -2.79247648675823        0.31765158773459
C           31.91151786457516       -3.44422127800746        0.37865217201999
C           32.85721603619464       -2.47552246166636        0.28558013455196
N           30.82178690301250       -1.44249240534656        0.17921862726452
C           32.16542621813890       -1.22787156921615        0.15934322911606
C           32.80110034467093        0.01785260970321        0.01474838658265
C           32.14191673783193        1.25057367645149       -0.13475341491997
C           32.80968356081931        2.50513175885282       -0.31052692449325
C           31.84579839879461        3.45414994032093       -0.41936800191896
C           30.58100108868466        2.78514843684779       -0.30255534267720
N           30.79438002346939        1.44164964932999       -0.14021680772977
C           29.33571749894301        3.41249860775716       -0.37135214741986
C           29.32029593252852        4.88756566228727       -0.52314061448818
C           28.75841444937404        5.49486143162009       -1.64553852879301
C           28.76782459762351        6.87745654967468       -1.74198467960315
N           29.28738914121779        7.66543265465385       -0.80620364450085
C           29.82355771443610        7.09477149826781        0.26781298079177
C           29.86550663800040        5.72178394099981        0.45214648720679
C           28.10259644918445        2.75938461058676       -0.30763303989654
C           26.81988960179098        3.40862290449371       -0.33370510951399
C           25.87909091790276        2.43640752841668       -0.24335315741308
C           26.57736791720911        1.18614444800671       -0.15171913096211
N           27.92423345596537        1.41140275571913       -0.18642797615839
H           24.87998391036679       -0.06267269701384       -0.03206214011101
H           24.85558236459324       -2.66160321604709        0.24368997558260
H           26.75369212140231       -4.55042330313605        0.47380659228210
H           30.31020141796058       -4.92065583645506        2.46957351700677
H           30.29761520121788       -7.40172964327271        2.64295366263935
H           28.57435912417834       -7.80142992897720       -1.06651094076133
H           28.52070524952503       -5.33815107426285       -1.40654140987405
H           32.06150021955072       -4.50785806021308        0.46857374880535
H           33.92967209380164       -2.58657584785587        0.29408000881955
H           33.87962833736948        2.63251066029463       -0.35044243676918
H           31.97557851570744        4.51240476322842       -0.57792547293926
H           28.33410904334426        4.89198616153163       -2.43960614597208
H           28.33958183273415        7.37288768079873       -2.60846622248395
H           30.23806539522938        7.76468913240670        1.01548729944329
H           30.30221300900302        5.30138617635337        1.35023754005312
H           26.66626727752859        4.47362404619638       -0.40019307249741
H           24.80577568628673        2.54253922639004       -0.23158981237077
Cu          85.20323002644228        0.02531454756281       -0.02004111071820
C           88.60952948892616        0.04325238095172       -0.07000435632419
C           87.97545548798958        1.25342963371827       -0.30693829062503
C           88.65199360333807        2.49784835863224       -0.53725409765957
C           87.69435948933030        3.44330603812560       -0.70308831560196
C           86.42296915453738        2.78241799635244       -0.58438503655678
N           86.62482216754881        1.45488212964212       -0.33811350595069
C           85.17921419657731        3.41141108983189       -0.67326175294461
C           85.16844815820927        4.86886208055882       -0.94908920579925
C           84.65491339349327        5.77683590281418       -0.02416863266387
C           84.66984036891512        7.12963550335172       -0.32535948214429
N           85.14922940725855        7.61221708193553       -1.46715797701474
C           85.63762464027215        6.75296847699809       -2.35577751843176
C           85.67185296182113        5.38387987644188       -2.14286619468147
C           83.94535187266499        2.77632246153195       -0.52341946931650
C           82.66885772490026        3.41830484353812       -0.66173311669446
C           81.72153269501027        2.46590128978175       -0.46942877582306
N           83.75527265063600        1.44541655917464       -0.25988554387828
C           82.41127577679073        1.23599010790828       -0.21923360133701
C           81.77379631708304        0.00530128322369        0.01727545163384
C           82.43120414234126       -1.21618597732345        0.24610600970817
C           81.76122492267066       -2.46426292271974        0.45610428783932
C           82.72353237891579       -3.40479012484403        0.63194322316912
C           83.98958204070659       -2.73460310476508        0.53791327997519
N           83.77844188034992       -1.40328284771376        0.29312790066886
C           85.23383330070344       -3.35753654269772        0.65113535136236
C           85.24694418077902       -4.81111700025245        0.94430698093054
C           85.80155447625603       -5.72586222560522        0.04987821130665
C           85.79057617781358       -7.07465367238173        0.36854856889047
N           85.27593914915494       -7.54780787131327        1.49896270687575
C           84.74649340907251       -6.68254221051396        2.35780875814952
C           84.70679179109683       -5.31664448550487        2.12626295479046
C           86.46786726236292       -2.71845583344499        0.50987058155325
C           87.74986882513063       -3.34997992705408        0.66853496593327
C           88.69201528369832       -2.39709447088637        0.46162494157820
C           87.99535227672941       -1.17346941897864        0.18500239169030
N           86.64810759343911       -1.39535566519385        0.22606309809012
H           89.69460224918076        0.05143177404560       -0.07368438203612
H           89.72353793723663        2.61909637854979       -0.55946210322643
H           87.82913243354440        4.49834080298561       -0.87921020490515
H           84.26294286829385        5.42949244471888        0.92435270428323
H           84.27916709478707        7.85641396785886        0.38086093067733
H           86.02020760660852        7.17752070996884       -3.27936448641082
H           86.07045525796343        4.71985553693193       -2.90061666332212
H           82.52073833290483        4.46141684776235       -0.88953071587757
H           80.64927337646941        2.57550736592929       -0.49794142482840
H           80.69097395445277       -2.59520636852272        0.46016460873090
H           82.59178454833345       -4.46177866234689        0.79716512637044
H           86.22145501576124       -5.38711979649252       -0.88978691307589
H           86.21338704427681       -7.80615370155132       -0.31392207678298
H           84.33576429350946       -7.09910765148734        3.27290199553362
H           84.27573268591790       -4.64743685628214        2.86135566598069
H           87.90228141707813       -4.38746958197208        0.91877820995746
H           89.76529667096798       -2.49800548035709        0.49746279019371
C           34.20687605423758        0.02893201430383        0.00972091231853
C           35.43115459023247        0.03350927826604        0.00523937281013
C           36.77407389546475        0.03751264160996       -0.00405097146896
C           38.00453466664533        0.03545037529349       -0.01223906472466
C           39.34257003078101        0.03232289025320       -0.02077606050073
C           40.57309314260106        0.02857428215115       -0.03030085914019
C           41.91574647700548        0.02312793500362       -0.03893778697993
C           43.14029428408035        0.01942003573842       -0.04529655672195
C           52.82127618929694        0.02193897486751       -0.02483886743338
C           54.04604568180759        0.02293620346007       -0.02155753615505
C           55.38822250052011        0.02119558231931       -0.01954630188018
C           56.61906705040706        0.02068577262126       -0.01937057693550
C           57.95651052638503        0.01693235235703       -0.01930456161907
C           59.18738511009760        0.01171320758946       -0.02188902554371
C           60.52956014255984        0.00917608508073       -0.02426457053946
C           61.75430258391080        0.00473282830663       -0.02901926094704
C           71.43483892473309       -0.00634288113042       -0.03052058968561
C           72.65940513923276       -0.00806099941863       -0.02245632282046
C           74.00195655425972       -0.00868503847052       -0.01454382786096
C           75.23254002599009       -0.01352214414254       -0.00624490480947
C           76.57045892118272       -0.01100623177880        0.00298670460415
C           77.80096113792499       -0.01293796077038        0.01083925945522
C           79.14379951964258       -0.00968593349465        0.01571791849886
C           80.36815025550951       -0.00578962671696        0.01596877027901
Cu          47.98118562250642        0.01270086106101       -0.04436138017982
C           44.54525479341127        0.01516415231627       -0.04837342872338
C           45.19220270137260       -0.86867960920419        0.83407652844201
C           44.51254658162176       -1.72966498044908        1.75459004819268
C           45.46720396025730       -2.42674671268902        2.42162143514441
C           46.73674619234509       -2.00002901395120        1.90580441273227
N           46.53645474261643       -1.04516086006283        0.94479195645263
C           47.97650814143717       -2.47380156823470        2.33954435340202
C           47.97310312001867       -3.54592729805485        3.36431063277256
C           47.40472483510398       -4.79255430443104        3.10528456546268
C           47.42596535763062       -5.76350018291521        4.09404536771445
N           47.96223972445997       -5.56393136152192        5.29370484757879
C           48.50417402205250       -4.37759340367471        5.54956348274327
C           48.53629410741815       -3.34635738107165        4.62408388931733
C           49.21813336157882       -2.02137540057465        1.88903272890291
C           50.48612516326639       -2.55457271860706        2.29847146788481
C           51.44337234510635       -1.85696192208572        1.63557264778628
N           49.42195699164846       -1.01995715025163        0.97722353915308
C           50.76679629786044       -0.90083245545345        0.81188068685145
C           51.41682951630300        0.01951084127053       -0.03042918413819
C           50.76969131569998        0.93619623007589       -0.87889942323109
C           51.44873091158954        1.89399733761504       -1.69855043127566
C           50.49402314724269        2.58347020422910       -2.37354231758188
C           49.22514937136005        2.04449694707390       -1.97455438538565
N           49.42575853906540        1.04768312581973       -1.05704272372729
C           47.98552169942772        2.48891573471829       -2.43865299762170
C           47.98823631004250        3.55177861014026       -3.47298623453809
C           48.56551935993471        3.34186077716542       -4.72474906529238
C           48.54087064385343        4.36413552876385       -5.66028267438074
N           47.99321203273274        5.55141365095661       -5.42151494565467
C           47.44335164410020        5.76079281414583       -4.22972941050641
C           47.41383763497551        4.79921657295095       -3.23201236516324
C           46.74395392052906        2.01600257577530       -2.00919666247134
C           45.47627581736581        2.43962882119809       -2.53214485367910
C           44.51897131618949        1.74961232014385       -1.86150548851647
C           45.19520466756880        0.89417617333662       -0.93337811116458
N           46.53997440793045        1.06788371705047       -1.04221248577763
H           43.44217114386583       -1.78169425905459        1.87350721274613
H           45.32816784020680       -3.15565786553046        3.20343141463561
H           46.96587934590183       -5.00348756889976        2.13733723533331
H           46.99336945925588       -6.74339643470782        3.91441352826348
H           48.93186769999762       -4.24442752102256        6.53898130363379
H           48.97886628319858       -2.39127792602894        4.88088437418764
H           50.62257919413722       -3.36715079778430        2.99344164004408
H           52.51361609397946       -1.97725450410163        1.68742143045556
H           52.51869624538789        2.02065242367128       -1.73995909705775
H           50.63261439793503        3.39478047651028       -3.06956892674598
H           49.01357601931600        2.38567242837717       -4.96751849380421
H           48.97987139064742        4.22282928706180       -6.64360060826281
H           47.00649415199552        6.74124065919357       -4.06402918044583
H           46.96432025490447        5.01839110492157       -2.27082442768703
H           45.34009838001772        3.16213583134259       -3.32037367180414
H           43.44893740984455        1.80199618007048       -1.98343427960101
Cu          66.59411581181544       -0.00295159130276       -0.03343261105444
C           63.15873629944142        0.00184673347468       -0.03129945414453
C           63.80680979388409       -0.87630180177576        0.85636830352763
C           63.12848746013287       -1.72988063127526        1.78461614565513
C           64.08387141043454       -2.42635197580015        2.45140861408909
C           65.35239757362723       -2.00706793528248        1.92729467443867
N           65.15092515028617       -1.05580856928077        0.96271127864064
C           66.59248220951997       -2.48586485622310        2.35425830257562
C           66.59246309416559       -3.55385265721914        3.38329503817741
C           66.01626323701220       -4.79908767046966        3.13533497935454
C           66.04495539587333       -5.76645995861924        4.12746073954392
N           66.59551524614139       -5.56466556168720        5.32024967955543
C           67.14431754936578       -4.37930762716106        5.56586413155925
C           67.16989643229624       -3.35166975241886        4.63626078301927
C           67.83335879897986       -2.04193867658193        1.89303818537071
C           69.10116874874709       -2.58274791960031        2.29304823456645
C           70.05768875424290       -1.88963102519179        1.62447544678488
N           68.03635426155438       -1.04141255690797        0.98027568898135
C           69.38077263079400       -0.92848719390511        0.80687158898044
C           70.03002121943355       -0.00600232039965       -0.03344111882676
C           69.38224871221225        0.91643663677135       -0.87483144848711
C           70.06077517123110        1.87599161589615       -1.69294185039381
C           69.10539362278215        2.57072103859961       -2.36151912474995
C           67.83660161746013        2.03256687682779       -1.96099965702327
N           68.03794039479516        1.03170648527539       -1.04814284319764
C           66.59644325339949        2.47904983141670       -2.42182102247527
C           66.59764670771612        3.54685285502240       -3.45105625342161
C           67.17396648909062        3.34338804024332       -4.70430245402118
C           67.14847489480614        4.37039523969446       -5.63462789648612
N           66.60089547980867        5.55637673850104       -5.38940655103096
C           66.05161312936850        5.75951344716524       -4.19624937133705
C           66.02283629201079        4.79283125133634       -3.20345976868752
C           65.35546856779935        2.00290606888062       -1.99433477129969
C           64.08756373272729        2.42404924972214       -2.51857543211477
C           63.13098345722419        1.73070039834518       -1.85021737656947
C           63.80792204432286        0.87706409193916       -0.92101428745915
N           65.15238342847542        1.05327546296758       -1.02857948847112
H           62.05848061480671       -1.77779461526077        1.90855371013217
H           63.94596415180943       -3.15047728339846        3.23786493013419
H           65.56617766230563       -5.01218977645040        2.17304487325343
H           65.60706025586045       -6.74550208132324        3.95621054968387
H           67.58370973293563       -4.24416082961657        6.54987499553940
H           67.61897287476111       -2.39733346917892        4.88441699145227
H           69.23794583026546       -3.39694618681279        2.98605221461846
H           71.12756996082980       -2.01586326676461        1.66893863928243
H           71.13095413136357        1.99963085163292       -1.73789593693524
H           69.24344950126199        3.38451204075503       -3.05474957608894
H           67.62190806906584        2.38845944263802       -4.95219488464688
H           67.58681532892078        4.23407654310726       -6.61893481920960
H           65.61468230196805        6.73905485293958       -4.02538698652148
H           65.57357123195020        5.00700456843271       -2.24102402584569
H           63.95080036138076        3.14703659158209       -3.30628098275036
H           62.06103470633824        1.78040115244294       -1.97404885662966
