128
 energy: -252.790912945409 gnorm: 0.000417362229 xtb: 6.5.1 (b24c23e)
Co          13.41334495896845       -0.03150469797295       -0.05360057990798
C           10.04596400825136       -0.03666212611298       -0.18101214092678
C           10.69896646695139       -1.24527638264096       -0.06659693218307
C           10.03651116450554       -2.51034581650586        0.03208098470711
C           10.99491229286734       -3.46030226409623       -0.07529973516487
C           12.24050927821811       -2.77317607706821       -0.25738826941779
N           12.05657907260955       -1.41692437250086       -0.17424084559888
C           13.43599130278730       -3.39193463370525       -0.59962254980877
C           13.45020622459756       -4.85032642380500       -0.84390295938473
C           14.28281689971038       -5.68304503833656       -0.08969434613052
C           14.30284829546208       -7.04731794257417       -0.31464116478116
C           13.48771331511746       -7.58356004728579       -1.30749097741041
N           13.50875594069578       -9.01508144358922       -1.55172775615114
O           12.78766115727738       -9.44390785532896       -2.41570317303282
O           14.24634021478126       -9.68524767594038       -0.87557743443230
C           12.65383332725861       -6.77188222410026       -2.07135112652858
C           12.63652723848634       -5.40961509372971       -1.83406775419826
C           14.61869194471212       -2.67777029505537       -0.73278342402935
C           15.86130609964984       -3.24322516625533       -1.16480961366730
C           16.80583155061019       -2.28668107454031       -0.99400296355481
N           14.79171119681119       -1.36338729479139       -0.36766510158690
C           16.13697150595291       -1.14081356215747       -0.46497764442102
C           16.80190969163032       -0.01853230868511        0.03625202256371
C           16.10596057012870        1.09009137606229        0.52544191692816
C           16.73959405134492        2.22922069365058        1.10930293301083
C           15.77560377945481        3.16669072271083        1.27675135506589
C           14.55869682771105        2.60079417257973        0.77660240288610
N           14.76182169328471        1.29675530307602        0.38791323632882
C           13.38126280115629        3.31166741825647        0.59055224236752
C           13.36677262549535        4.76424262750986        0.86570301292566
C           12.46791670926049        5.29958515064313        1.79364263261475
C           12.45086013407102        6.65778158554258        2.05323105612380
C           13.33742592489547        7.48986814329290        1.37553581375319
N           13.32135494597670        8.91753981150411        1.64152606976290
O           12.51986064739203        9.32661921055580        2.44189411861760
O           14.11040830652866        9.60464138330431        1.04516604979856
C           14.23866261282603        6.97772365981860        0.44651222931821
C           14.25061923400546        5.61760216077739        0.19754746031198
C           12.21781242010326        2.69807415603306        0.14239228375333
C           10.99196586961397        3.38768281257543       -0.13738292770664
C           10.05133830382368        2.43956071202467       -0.35891032787061
C           10.70501364169688        1.17322905550155       -0.22461943028709
N           12.04546813716983        1.34414037898187        0.01719653144092
H            8.96375704346120       -0.03735413952833       -0.23252909001736
H            8.97316004967518       -2.63454664569847        0.16012885041343
H           10.88226725136540       -4.53174514526877       -0.04030838471195
H           14.90468369968951       -5.25433276356023        0.68750466051258
H           14.93988128159711       -7.70129621089583        0.26862193799214
H           12.03285324717945       -7.21353698650435       -2.84143832318625
H           12.00190212248551       -4.76538811425478       -2.43133478231016
H           15.98404819626824       -4.24252917505855       -1.54941201066594
H           17.86390822982023       -2.34022674606610       -1.19302045029468
H           17.78888663849233        2.28994596173563        1.34881710941999
H           15.87028440564464        4.15455579462667        1.69710611872552
H           11.79175946815653        4.63988650557312        2.32471495223847
H           11.76229101006305        7.08086316845546        2.77466944412965
H           14.91530034071701        7.64710111865775       -0.07086746438450
H           14.93759972458536        5.20872585748073       -0.53411540287699
H           10.87914702463332        4.45947364712616       -0.15819739526811
H            9.00460849520771        2.56587060189144       -0.58459311990770
Co          31.92760458227968        0.04611055030927       -0.03874851266198
C           35.29640389605827        0.09939113636148       -0.15640776637115
C           34.64341067046003        1.18059679676220        0.39543498199887
C           35.30729096743593        2.32029837887103        0.95162666187296
C           34.34894349973856        3.24107321278844        1.20850350336224
C           33.10197421886098        2.66799670260073        0.79210245661455
N           33.28543400478347        1.37817707935421        0.36438148006437
C           31.90457662048267        3.36727546201377        0.71567424743792
C           31.89003202136634        4.81100635339109        1.03660751781574
C           31.07203010336377        5.29664006781101        2.06145512998329
C           31.05167193802402        6.64563172836318        2.36496876545122
C           31.85112440553301        7.51830618022992        1.63213761234470
N           31.82900836707622        8.93697856549223        1.94251538081655
O           32.53357845482701        9.66194103015112        1.28798647634804
O           31.10794439584441        9.30108879581704        2.83567416893394
C           32.67016727241867        7.05567916855919        0.60607801087521
C           32.68853713741618        5.70381560483217        0.31524629823627
C           30.72012626002578        2.75380114216843        0.33268338869485
C           29.47584002450191        3.43979317457024        0.15483452476520
C           28.53149774151953        2.48923677287021       -0.04667878692303
N           30.54789790901803        1.39887157803640        0.17297345498318
C           29.20211348922670        1.22902820287817        0.00333136484746
C           28.53746135966274        0.00038151443245        0.03810252649042
C           29.23291990000695       -1.21118499715679        0.06781498453319
C           28.59720320656149       -2.48597625471175        0.17194691228663
C           29.56117682914567       -3.41782299607829       -0.02374523997830
C           30.78020778961076       -2.70566466581330       -0.26455555457921
N           30.57780344458675       -1.35122907545085       -0.13217063038931
C           31.96009514944597       -3.29606667706496       -0.69471666143280
C           31.97481322613092       -4.74613194424258       -0.98401811632820
C           32.86115472944999       -5.59273515634166       -0.31090610900825
C           32.87836957610549       -6.94925463377150       -0.57923719020951
C           32.00511442348554       -7.46386036390787       -1.53329865603291
N           32.02199718830848       -8.88706926923090       -1.82228574840369
O           32.80991753689536       -9.56923845931409       -1.21897533576898
O           31.24613258389412       -9.29773256727615       -2.64682913954027
C           31.11663040659390       -6.63818459053045       -2.21627926426928
C           31.10389007941569       -5.28398070700897       -1.93683592188999
C           33.12582053564839       -2.56124915869510       -0.87233734944565
C           34.35388785525271       -3.09952278030280       -1.38087338181166
C           35.29419527717633       -2.13714127278333       -1.23195711189861
C           34.63814587530546       -1.00981241980897       -0.64233153741296
N           33.29703326076744       -1.25751445885773       -0.48557961952960
H           36.37859697716668        0.11955526550143       -0.20432518962304
H           36.37141984955122        2.38969061448036        1.11086609468491
H           34.46223977073888        4.22386260544133        1.63650964064685
H           30.46187558535346        4.60522953155483        2.63085826072151
H           30.42616515464529        7.03064346301412        3.16134462307037
H           33.27902037824435        7.75642284814308        0.04753504223941
H           33.31198037538571        5.33286721800209       -0.48988151223705
H           29.35215409771517        4.51013824000872        0.18036683011336
H           27.47251875474684        2.61320235507304       -0.20539032781861
H           27.54667870580591       -2.63184042123169        0.36476892025034
H           29.46535233570353       -4.49121770538502       -0.01079355074061
H           33.52728354378736       -5.18204833648836        0.43879192777132
H           33.55704297268085       -7.61399343493430       -0.05853011453026
H           30.45027227191905       -7.06276163673539       -2.95742913369799
H           30.42655495576054       -4.62858554214205       -2.47174932071416
H           34.46808030173563       -4.08796961540106       -1.79539320568473
H           36.34212057772379       -2.17141313325258       -1.48336094994144
C           18.20381232882093       -0.00953810145472        0.05489444355071
C           19.42880788800118       -0.00948475623808        0.06340110309787
C           20.77006394320421       -0.00998546981245        0.07120747519308
C           22.00146629881595       -0.01491453533001        0.07315587310855
C           23.33785607580841       -0.01815786605981        0.07227882344786
C           24.56924557977578       -0.02193829620252        0.06784884307588
C           25.91050637605105       -0.01871249047636        0.05990756069010
C           27.13548507429501       -0.01509399673614        0.05168780448442
