126
 energy: -237.624422088320 gnorm: 0.000699556611 xtb: 6.5.1 (b24c23e)
Fe          17.05067042663505        0.02762516386393        0.01300899161434
C           13.66760698833030        0.02252218936591        0.14890497801984
C           14.31339256725478        1.24210250626326        0.12839660987945
C           13.63835406805324        2.50472203859284        0.10177081164618
C           14.59386149373235        3.45826991836632        0.20604269302432
C           15.85097263829517        2.77527898590607        0.31499258837155
N           15.66840080889997        1.42197804585820        0.22113322598697
C           17.06437259573464        3.40324353905256        0.57388754139587
C           17.07740233617379        4.87007067774405        0.78363293220377
C           16.35290008235953        5.44488409015797        1.82387184010391
C           16.37200246570719        6.82522542770168        2.01962088704033
C           15.58248616503227        7.37768069612116        3.14936535243773
O           15.67731985163765        8.70990630917876        3.26843751721510
O           14.91256818629985        6.71431227511992        3.89853639030699
C           17.11563394253812        7.64229038716543        1.16824294393992
C           17.83559589478663        7.07229000022568        0.12988477691416
C           17.82061354787935        5.69807183475475       -0.06143460876116
C           18.26736128409187        2.71342307901539        0.65027498928095
C           19.51914418158270        3.31675041914178        0.99829847161422
C           20.46801087008546        2.36099233652288        0.84737257743741
N           18.44748689606288        1.38577743796018        0.34696783151670
C           19.79451962666020        1.17879065967561        0.41035473346729
C           20.45806676846799        0.01076930688696        0.01708739349416
C           19.77895906030989       -1.14883735392616       -0.37695750208151
C           20.43402820860119       -2.32348812529435       -0.85901960180577
C           19.47494616758031       -3.26871281217136       -1.01445617450981
C           18.23632340219446       -2.66802447546477       -0.61874388668720
N           18.43449482033845       -1.35250020429000       -0.27531401662231
C           17.03160138198015       -3.35211544433835       -0.52325285649269
C           17.02282469042735       -4.81090020963319       -0.78324316309673
C           17.79182885802719       -5.67393194750551        0.00095523598336
C           17.78536318018877       -7.04098981026473       -0.23832417839469
C           17.01622757579193       -7.56268561870137       -1.26503272380237
C           16.24517198386683       -6.71025813344432       -2.05682647008592
C           15.43628475619844       -7.30791246487696       -3.14908255018315
O           14.72072328373236       -6.40920190397598       -3.84034496468868
O           15.40817487525030       -8.48383634860855       -3.40754067259433
C           16.24761783224659       -5.33833227550561       -1.81387991441218
C           15.83403191100355       -2.72588132981352       -0.19396421010838
C           14.58282735667610       -3.40985253424455       -0.03523451131644
C           13.63821293597973       -2.45864650356987        0.15473624294072
C           14.31378421489302       -1.19649867264189        0.12136392155346
N           15.66269313170682       -1.37654686656982       -0.04153311262893
H           12.58393770344602        0.02196106352521        0.18037573615859
H           12.57047796054287        2.62583795852781        0.01317135983130
H           14.47119961946962        4.52914329820345        0.21121502319944
H           15.78007867101854        4.82402775102101        2.50403726351585
H           15.13678007255664        8.99165665201740        4.02438420054071
H           17.12728839396750        8.71465461583317        1.32078402647903
H           18.41311587879322        7.70167375824107       -0.53777387274954
H           18.37715293363918        5.25903698380005       -0.88194169388582
H           19.64525584157204        4.33698231824125        1.32222603542924
H           21.52991738904981        2.43697771599176        1.01540250372613
H           21.49085364492215       -2.40082201476771       -1.05614729983323
H           19.58630258758478       -4.27930568153318       -1.37234941123466
H           18.38519632157756       -5.26828489284641        0.81273298184345
H           18.38325535440903       -7.69919272972960        0.38170946934302
H           17.00075003014727       -8.62777628906751       -1.46684221745908
H           14.22347347363580       -6.87610166334901       -4.53144126370189
H           15.65872622315863       -4.67717107794420       -2.43852734094328
H           14.45666155353218       -4.47994610031162       -0.06515408797384
H           12.57670363906849       -2.58067256022469        0.30024372358113
Fe          27.89221675705184       -0.03036132302182        0.00329908260835
C           31.27527621842635       -0.06986927999316        0.13331936756266
C           30.62947245435727       -1.21606407141744       -0.28382765601361
C           31.30449414658429       -2.40094183967751       -0.72086523396277
C           30.34897718341047       -3.33635098099086       -0.93328163872081
C           29.09187767648134       -2.72626254687316       -0.60744804755447
N           29.27446475254052       -1.41635913646097       -0.25477262988489
C           27.87847334932018       -3.40433349144888       -0.56751180488499
C           27.86542445579622       -4.85935292330601       -0.84766129941920
C           28.58991092310637       -5.74205522092464       -0.05182178626392
C           28.57088502166294       -7.11072385408082       -0.31711189528263
C           29.36110710471654       -8.00148485931510        0.57026197207903
O           29.26555304798918       -9.29965856840879        0.24874901271451
O           30.03033349167803       -7.61868263495605        1.49529385923096
C           27.82724473702103       -7.60539543213134       -1.38842758492246
C           27.10729733795411       -6.72786753064732       -2.18404829530697
C           27.12218190055095       -5.36642102292122       -1.91656207129322
C           26.67549141897723       -2.77713304188549       -0.27032142760029
C           25.42370242073611       -3.46096256541696       -0.13807994880726
C           24.47485136900008       -2.50822829774480        0.03097274405097
N           26.49538432195661       -1.42316017359374       -0.12401784890767
C           25.14835742550748       -1.24814722721530        0.00342986825235
C           24.48482340633488       -0.01572272109178        0.01264729043610
C           25.16394021496890        1.20898630472161        0.01839471883184
C           24.50888310654899        2.47663852550244       -0.05415121620548
C           25.46797225084463        3.42085711651286        0.10724061797190
C           26.70658901685992        2.72393582606870        0.28537695778737
N           26.50840593958249        1.36834375986639        0.18091648102152
C           27.91131497914812        3.33945424166332        0.59879238307833
C           27.92009936586809        4.80325312419716        0.82887838150870
C           27.15109341926664        5.36327732843597        1.85170237681214
C           27.15750297885776        6.73361817057947        2.07139984793668
C           27.92649943611801        7.56170015987854        1.27092435035459
C           28.69771609208332        7.01416087918640        0.24448863304595
C           29.50733693485708        7.93533513201980       -0.59254751665508
O           30.22211759508977        7.31133940221899       -1.53971178389302
O           29.53470252488022        9.13132122610170       -0.45385267958641
C           28.69526790675446        5.63802582276823        0.02663049534507
C           29.10888259316578        2.64005769339734        0.70578251392679
C           30.36009933147935        3.23483768018750        1.07890007110968
C           31.30470906860058        2.27369424774534        0.94815778034807
C           30.62911937403503        1.09146831838428        0.50493057687270
N           29.28020845147527        1.31480480183076        0.40972823568599
H           32.35894619383861       -0.07960699582702        0.16321079858101
H           32.37236474467944       -2.48653261263872       -0.84418009488257
H           30.47163151851102       -4.35033153281950       -1.27772302457461
H           29.16286195184719       -5.37702056921008        0.79357784251990
H           29.80588031828015       -9.81253294457812        0.87168249257673
H           27.81579260524575       -8.66884507550565       -1.59414629566596
H           26.52974742750832       -7.10503865081697       -3.02047140075094
H           26.56544103465649       -4.68378399152164       -2.54883873613019
H           25.29756751296008       -4.53105341649968       -0.16460294045752
H           23.41294685766052       -2.63484691248444        0.16505298092333
H           23.45205972468823        2.61405327534370       -0.21527677823984
H           25.35662835905000        4.49291738827543        0.09856269561947
H           26.55768186263895        4.71502271855016        2.48672581058912
H           26.55966145442736        7.15356262270131        2.87225582869847
H           27.94212889066035        8.63434367729795        1.42769223234502
H           30.71891914941663        7.97817073328859       -2.04101626882327
H           29.28421571417019        5.21677644767806       -0.77947999251798
H           30.48627581399119        4.25615892998940        1.39967296420102
H           32.36622641294131        2.34158280150298        1.12546154619092
C           21.86228960904948        0.00383218405009        0.01018845547549
C           23.08060080505789       -0.00690352127992        0.00839314337512
