205
 energy: -343.285420511793 gnorm: 0.000226780257 xtb: 6.5.1 (b24c23e)
Cu          36.02808931691462        0.03929241019751       -0.03395805566503
C           32.62228974137847        0.06282594424211       -0.04501731291831
C           33.25021966843698        0.98115800634525        0.78314915209706
C           32.56879876849224        1.88101786060431        1.66801189027715
C           33.52231238329299        2.60685393326053        2.30372911232242
C           34.79510296788507        2.16708289511151        1.80087108406280
N           34.59890399625854        1.17393543879626        0.88492892675346
C           36.03569372959925        2.67062406954329        2.20412115622818
C           36.03652726500874        3.79462272903994        3.16976916568220
C           35.40375900385519        5.00248833091525        2.86219877464058
C           35.40210849929400        6.04987704206379        3.76382897364865
C           36.02908835274399        5.91789849308564        5.00895313241436
N           35.94729855843043        6.97382985612386        5.90515009556213
C           36.94323228605090        7.10128181514068        6.96069489650425
C           36.65235729853347        4.70784937474635        5.32691934005506
C           36.65991439247571        3.66827381185587        4.41248010237030
C           37.27204328762726        2.18882660578046        1.76655614787340
C           38.54357617586876        2.75460613125253        2.11659832055908
C           39.49556659809466        2.01311202203807        1.49418925108229
N           37.46943787657459        1.12321490822160        0.92790925014239
C           38.81318607931339        0.99600674813545        0.75334560328760
C           39.45687465635059        0.01617257627255       -0.02389777358073
C           38.80464051300431       -0.95582412578675       -0.80379515972728
C           39.47758041973794       -1.98263883829170       -1.53988555641284
C           38.51934593272054       -2.71159145348812       -2.16745400361997
C           37.25358282349401       -2.12822363654054       -1.82545980522198
N           37.46037927124699       -1.06490823001948       -0.98620047130723
C           36.01353044525631       -2.59355795734930       -2.27006516906978
C           36.00591311510902       -3.72039501349927       -3.23251193139584
C           36.63609766430585       -3.60513349560688       -4.47281490410621
C           36.62476339350722       -4.64937232445081       -5.38190479193318
C           35.99120487365971       -5.85308033842637       -5.06028750252133
N           35.90868117585553       -6.91418848084485       -5.95037428431108
C           36.91256558909122       -7.05479398350524       -6.99679056540360
C           35.35562713368642       -5.97314282446802       -3.81836707368619
C           35.36078055129320       -4.92095492524087       -2.92233958217122
C           34.77751909024036       -2.07270685374221       -1.87524657233821
C           33.50206992366086       -2.49637774168719       -2.38505244073880
C           32.55456820643010       -1.75652363414633       -1.75652914192783
C           33.24265108662944       -0.86444925146991       -0.86888622149683
N           34.58918645377432       -1.07556026633441       -0.96202569124725
H           31.53703585457438        0.07021167995333       -0.04824681644979
H           31.49796417575345        1.93080295504757        1.78889592002000
H           33.38213717052372        3.36362377360681        3.05875098152371
H           34.92838530512206        5.12547803999675        1.89511353252332
H           34.91309141748318        6.98436964711130        3.50924344661506
H           35.75364989773018        7.85791225960224        5.45014190634694
H           37.96265312218958        7.07057734897284        6.55921814148716
H           36.82020544550021        6.29915552679469        7.68952694637831
H           36.78188501810865        8.05550717504637        7.46226912416882
H           37.12952151129772        4.56899067887709        6.28929808429940
H           37.13759986349677        2.73068751211323        4.67574729272168
H           38.68615061486638        3.62041610168193        2.74291367831048
H           40.56586592403964        2.14206948763586        1.52142636897039
H           40.54613696002739       -2.12636699908753       -1.56037238600544
H           38.65382201595611       -3.57955606485005       -2.79257126996891
H           37.12290953622949       -2.67286212472990       -4.73822522584120
H           37.10763736699751       -4.51945103691992       -6.34269025383378
H           35.70636816732191       -7.79395707151343       -5.49077006673455
H           36.79570677516416       -6.26123701904737       -7.73599096043650
H           36.75448409440739       -8.01481465839963       -7.48818387739126
H           37.92886705261855       -7.01983969444747       -6.58787250257505
H           34.85785382178244       -6.90235179231070       -3.56147001323641
H           34.87894319655866       -5.03466330603664       -1.95732122598201
H           33.35662356962646       -3.25290691640470       -3.13933654698861
H           31.48390229475926       -1.79212838756587       -1.88376516820177
Cu          62.96838677721986        0.01845017610649       -0.01554177443923
C           66.37417726347338        0.02214383002003       -0.04274050898007
C           65.74552364406449       -0.98710306936847       -0.75673564605762
C           66.42623393919146       -2.04755073505536       -1.44183059785192
C           65.47205884684712       -2.82752794896622       -2.00865577111828
C           64.19949938307042       -2.24122289649131       -1.68723306839522
N           64.39670694170182       -1.12932046210265       -0.92018688622244
C           62.95828234427297       -2.74691514095249       -2.08590606953072
C           62.95728413942089       -3.93797122051155       -2.96774998385062
C           63.58460052267920       -3.90371416181868       -4.21640684915874
C           63.58916305749459       -5.01607611003037       -5.03653997335576
C           62.97093496696260       -6.20408559017557       -4.62757640195601
N           63.05734478911182       -7.31317007759491       -5.45665254411864
C           62.06938846598906       -8.37750486263345       -5.34156166624643
C           62.35197012151770       -6.24749618095790       -3.37508849776553
C           62.34124812465937       -5.12430981515977       -2.56547576876033
C           61.72223482236083       -2.21476898040886       -1.71031831833770
C           60.45004616833348       -2.68339448980171       -2.18090184362040
C           59.49875188537679       -1.91119903310888       -1.59584406165458
N           61.52576539154101       -1.15942656201689       -0.85866509544757
C           60.18221329532905       -0.96117063500175       -0.77147117417054
C           59.53964826601919        0.01618533422476        0.00997187208138
C           60.19258687453424        0.99306803605492        0.78331072884242
C           59.52025844860426        1.93980397080530        1.62046041926611
C           60.47915820067931        2.71171472036427        2.19332781300864
C           61.74475958848908        2.24684574095134        1.70167165386848
N           61.53699349313948        1.19325063826064        0.85053229517164
C           62.98554041555050        2.78094272726168        2.05861828653372
C           62.99494620162891        3.96794032553769        2.94579339544677
C           62.36616814611619        5.15338357784282        2.56091432341274
C           62.38062596164566        6.27036115751844        3.37899590570511
C           63.01639508233530        6.22120690803626        4.62282103294078
N           63.10323279500276        7.32350812975537        5.46092745226380
C           62.10220708989500        8.37797184320376        5.36900870939961
C           63.65009198589426        5.03508828276317        5.01302761831802
C           63.64151186685606        3.92903142996401        4.18445489253421
C           64.22125212335087        2.27920117508110        1.63853819351791
C           65.49744696065120        2.86816742753046        1.93997335120939
C           66.44413038101037        2.09110108107191        1.35677358031662
C           65.75487360712248        1.02983759721182        0.68155655058873
N           64.40855685173445        1.16876731139240        0.86690343480931
H           67.45943701181321        0.02317553649130       -0.05129527998269
H           67.49709400745184       -2.17580880178932       -1.46607064578780
H           65.61165319904970       -3.72994891795048       -2.58185735736892
H           64.05390024945595       -2.98582982917606       -4.55346952821572
H           64.07420878292464       -4.97353409308271       -6.00614787618854
H           63.24704067930531       -7.06649195665363       -6.42061220370004
H           61.04690219953304       -7.98643926028062       -5.39600927726560
H           62.20059294035995       -8.90887823710028       -4.39806765091650
H           62.23173679414379       -9.07755398312178       -6.16116425927845
H           61.88110245057516       -7.15733990031019       -3.02347219891853
H           61.86726000987505       -5.17443633247068       -1.59111452764920
H           60.30667181463227       -3.48801020811917       -2.88397189565953
H           58.42825852159987       -1.96717646250242       -1.71351657471236
H           58.45162388296131        1.99346174408491        1.75487972021801
H           60.34510351678927        3.51376120631371        2.90113832618907
H           61.87816497493845        5.20768717822385        1.59372145322851
H           61.89874360214996        7.17965516503617        3.04115589247977
H           63.30753216356788        7.06943019883954        6.41999697501084
H           62.21810389368460        8.92274608299886        4.43114381156293
H           62.26457248153428        9.06932580172191        6.19592655027654
H           61.08480855862766        7.97454331886234        5.42826797408291
H           64.14938042184293        4.98861118476806        5.97519458110946
H           64.12209684866419        3.01198656421127        4.50759451779261
H           65.64405741728955        3.77033800343222        2.51183377290321
H           67.51495737519508        2.22174341574296        1.36382213440279
C           42.08513784314824        0.00291701186442       -0.02537049041582
C           40.86283915984266        0.00818102829418       -0.02182466536686
C           43.43487907178083       -0.00098783899234       -0.02489940332449
C           44.65731849432838       -0.00228134996513       -0.02600845403174
C           55.56164803806026        0.01845838946464        0.02406740229648
C           54.33920018658483        0.01875833758785        0.02271449088327
C           56.91138078581939        0.01836359771087        0.02274537623475
C           58.13369937122415        0.01694122365018        0.01799318749389
Cu          49.49804154727777        0.00998248575675       -0.00463076298943
C           46.06270908477720        0.00077115179736       -0.02130699714074
C           46.71775340160021       -1.01225113266483       -0.74525837817060
C           46.04786053547958       -2.07915818032110       -1.42450832601749
C           47.00911387915394       -2.84157752228956       -2.00664890791615
C           48.27252814247221       -2.23753268545396       -1.69441496389129
N           48.06229640090061       -1.12884692692134       -0.91791786085933
C           49.51561973754405       -2.72269932897995       -2.10971114460964
C           49.52482385232205       -3.89662703573974       -3.01405923567301
C           50.16987150253152       -5.07951366119625       -2.64180173190576
C           50.18076856666716       -6.17452829539702       -3.48477183862952
C           49.55636983762109       -6.11485483289995       -4.73664274385821
N           49.55535505803780       -7.25392281533474       -5.52926644318715
C           49.37974567808915       -7.12689817954288       -6.96996354195068
C           48.90361776649052       -4.93704186606219       -5.11118456804639
C           48.89031240634896       -3.84772705308563       -4.25658754026187
C           50.75218877758751       -2.18756109852599       -1.73799131188071
C           52.02248114265840       -2.63451184477302       -2.23296096224046
C           52.97406052266285       -1.87083556061180       -1.63664098773477
N           50.94865763787133       -1.15263608113183       -0.86254131935584
C           52.29123357787157       -0.94663511633106       -0.78355842179672
C           52.93385533784099        0.01652018998843        0.01584260425307
C           52.27846561400229        0.97777860046867        0.80690888502435
C           52.94769296845703        1.90625337181934        1.66611079176206
C           51.98628000596323        2.66806475613700        2.24894709753951
C           50.72362658001165        2.21496036334152        1.74022349425381
N           50.93427395899216        1.17887377824863        0.86952317558497
C           49.48067615464202        2.74520799504441        2.09716194226424
C           49.47411178366480        3.92046390793333        2.99989878050131
C           48.82848637361720        3.86866740885773        4.23653972752062
C           48.82612807869845        4.95915273177237        5.08971756841096
C           49.47365601348857        6.14118302550782        4.71944581623570
N           49.45693098960082        7.28142293410848        5.51032909096059
C           49.26950834262269        7.15504433530669        6.94959805941752
C           50.10918167675202        6.20361403268673        3.47332855119375
C           50.11419395724629        5.10730644104532        2.63191394004687
C           48.24445015436611        2.25319427737682        1.66986161834981
C           46.97485937180274        2.85055174938338        1.96954749387127
C           46.02338728453957        2.08200095479509        1.37954705876251
C           46.70555080229366        1.01812901401276        0.70773174506331
N           48.04769479042100        1.14249801160475        0.89267655454981
H           44.97955499777174       -2.22552128089343       -1.43930424280372
H           46.87732376729522       -3.74416524783638       -2.58117128026776
H           50.65032640380455       -5.14331595583124       -1.67156879865468
H           50.67571506739170       -7.09023167103794       -3.17862125913626
H           50.30069130148355       -7.89636735931467       -5.28839879806165
H           48.35879958746367       -6.81674987403109       -7.19634679991314
H           50.08059024283858       -6.40162942712933       -7.39919393073289
H           49.55425600073033       -8.10518821697997       -7.41793362436883
H           48.40383166935029       -4.86364154918724       -6.06930432410631
H           48.39651700392746       -2.93317593504265       -4.56693504344142
H           52.16561506384690       -3.41915540671655       -2.95823831531796
H           54.04370013801828       -1.91554011810494       -1.76612660831790
H           54.01557262419045        1.95499195764429        1.80818499387184
H           52.11764219934278        3.45541214025572        2.97353863081407
H           48.33824519119224        2.95105596782759        4.54345127022325
H           48.31811236199226        4.88331776693852        6.04329741238923
H           50.19997871410089        7.92873110113435        5.27545131444550
H           49.97473961081849        6.43879413324346        7.38669673503962
H           49.42842371051027        8.13612816070377        7.39725363272073
H           48.25023072226335        6.83345237352909        7.16714402237564
H           50.60019354549775        7.12249271498501        3.17040463607573
H           50.60312239751202        5.17321237694179        1.66605784472108
H           46.83258251502419        3.75297010173228        2.54180911318202
H           44.95423215166262        2.22253093818911        1.38438305169991
