189
 energy: -335.433379449264 gnorm: 0.000436355071 xtb: 6.5.1 (b24c23e)
Zn          25.97403856397128       -0.01635179729616       -0.02801126883803
C           22.56550292190554       -0.07036609470011       -0.10340257541419
C           23.20170034453106       -1.30357818435139       -0.02639236609764
C           22.53412713822346       -2.57151523526115        0.06678695180255
C           23.49812175418089       -3.52260458558549        0.14863792497362
C           24.76776234854454       -2.84749827161582        0.09494931232877
N           24.55223338889960       -1.50401078252725       -0.00423045261786
C           26.02209820444116       -3.46725547769463        0.16188602046542
C           26.04383083386317       -4.94892851960450        0.25531834936071
C           25.51220383602390       -5.73358231263268       -0.76840454399643
C           25.53507111527763       -7.11744815046149       -0.68584224603845
C           26.08788870982334       -7.73381891117265        0.43413862041828
O           26.12801017604334       -9.08622227268422        0.55719863544692
C           26.61867734187116       -6.96207241905197        1.46598324059084
C           26.59773050073361       -5.58182265852192        1.37085212505085
C           27.25688444250805       -2.80954870456063        0.14862511162735
C           28.54035898047159       -3.45550996914906        0.15953567885749
C           29.48137550470820       -2.47799277511013        0.11826702127307
N           27.44351241559820       -1.45370252235656        0.09007993993711
C           28.78406110220325       -1.22642052212175        0.07529076889695
C           29.40879668082441        0.03619191977613        0.01652258160590
C           28.74789927544014        1.27994738027959       -0.04492818730859
C           29.40833913841914        2.54946141682420       -0.12583783206694
C           28.43905133837139        3.49833277608211       -0.18066714207089
C           27.17496345743942        2.81711708359629       -0.12726855813132
N           27.40126498728396        1.46821976349088       -0.05209497911050
C           25.92124494968921        3.43617868986028       -0.17826540167917
C           25.89884112598619        4.91998798027871       -0.22535941854094
C           26.43242276343475        5.67011753696335        0.82560262802693
C           26.41040902983792        7.05317374729278        0.79306973347991
C           25.85595508688930        7.70961468338612       -0.30405388607117
O           25.85308645857459        9.06815611580369       -0.30565454067688
C           25.32365553011902        6.97565488843784       -1.36131696561592
C           25.34408123231804        5.58998474205381       -1.31604243155753
C           24.68584601759371        2.77597221417796       -0.18455753069750
C           23.39679197111845        3.41532186335807       -0.19749885460861
C           22.46129257258215        2.43287238336468       -0.18443498434622
C           23.16589737837600        1.18215002509064       -0.15149336317808
N           24.50996193436268        1.42341210116855       -0.15051517280258
H           21.47992122930982       -0.08623508478630       -0.11088994839913
H           21.46355183150941       -2.70470047888812        0.07690816860827
H           23.36525215741008       -4.58790957613535        0.25004262812737
H           25.09312323962576       -5.25549441759641       -1.64690726922546
H           25.12694135151193       -7.72230273818290       -1.48860539144386
H           25.73530295882963       -9.52073484130829       -0.21173081937541
H           27.04161616307447       -7.45463819490922        2.33284805310320
H           27.00032158045507       -4.98141508889032        2.17908644000481
H           28.69983352987986       -4.52156485679311        0.18083747565927
H           30.55418987547080       -2.58755868007068        0.11147852179370
H           30.47755350215254        2.68891106782771       -0.14451129782587
H           28.56723663787679        4.56547218277549       -0.26525754288660
H           26.85292510386628        5.15952260478927        1.68481732918313
H           26.81730994867665        7.63644519564123        1.60986294298536
H           25.44651809834171        9.41799311887159       -1.10972887240379
H           24.89722883463837        7.49093444821699       -2.21541017033247
H           24.94082561444317        5.02031690993917       -2.14599997402584
H           23.23219638028469        4.48099443833551       -0.20209430843425
H           21.38725320704677        2.53484335718156       -0.18717430936829
Zn          63.21103545251192        0.00082069683315       -0.01249447183695
C           66.61861120479607        0.04624241834858       -0.12653323091140
C           65.98045267347111        1.27726915801194       -0.22011052020471
C           66.64614972394601        2.54593528064424       -0.31632095160701
C           65.68094909110802        3.49827131747212       -0.36117208664521
C           64.41231980206641        2.82158597764771       -0.30373154311717
N           64.62975589767846        1.47787898508063       -0.21234897689852
C           63.15755259624492        3.44414504972304       -0.31064853821074
C           63.13432079826779        4.92362111956375       -0.43344046347892
C           63.65261345320221        5.54989587134179       -1.56727143748097
C           63.62859940867618        6.93091665874579       -1.68801963173743
C           63.08799055578211        7.70471428641777       -0.66388645625191
O           63.04723566743504        9.06056716130272       -0.73963789868287
C           62.57059835922254        7.09243334166044        0.47604930700977
C           62.59264210811761        5.71311240790698        0.58390522352085
C           61.92417723425007        2.79095574502676       -0.21309285818537
C           60.63941873469759        3.43143003048003       -0.27564423912924
C           59.70026468085715        2.45735992843301       -0.16664505865518
N           61.73997507037217        1.44023284891085       -0.07792893436310
C           60.39989685350452        1.21238731513396       -0.04381104372709
C           59.77724383567051       -0.04720417753091        0.07319673392410
C           60.43988895823063       -1.28772291091713        0.17071611214594
C           59.78116004318661       -2.55712010172066        0.26619194372427
C           60.75174465168182       -3.50379197140906        0.33458516103511
C           62.01495571060628       -2.82048429877913        0.28779350153697
N           61.78677191062698       -1.47407362759208        0.18015283373570
C           63.26945168769063       -3.43946052668009        0.31618493458475
C           63.29477376760558       -4.91535216002355        0.47533291651004
C           62.76567064648657       -5.51330780287519        1.62187142439151
C           62.79235852318811       -6.88728657646940        1.78247243670119
C           63.34719050830309       -7.68862120920562        0.78643342284817
O           63.35556397352899       -9.03399477611716        0.97483965756429
C           63.87431446656192       -7.10768059712772       -0.36442360421693
C           63.84912889972932       -5.72932097662797       -0.51283037533624
C           64.50362186592348       -2.78511735438495        0.21155543442437
C           65.79387001780032       -3.41848448586649        0.28023106650163
C           66.72743890389732       -2.44301988391511        0.14803673698134
C           66.02051838778449       -1.20094004683744        0.00914606373149
N           64.67700072037827       -1.44099789662197        0.05416304042876
H           67.70404330496429        0.06185941530753       -0.14627937981437
H           67.71647159986804        2.67994532095828       -0.33687616603562
H           65.81252489357912        4.56721718820551       -0.41451967888326
H           64.06211561553933        4.94822638839655       -2.37119035590004
H           64.02640427332953        7.41157381036886       -2.57546587524593
H           63.43041405421344        9.37788381649717       -1.56833882887642
H           62.15709090313407        7.70674427629825        1.26635415579794
H           62.20071386694195        5.23766793998743        1.47616696500838
H           60.47761903585855        4.48978892200828       -0.40225057719026
H           58.62721190859828        2.56439444735684       -0.17462010952220
H           58.71208365545429       -2.69870588579969        0.27330766573578
H           60.62494865119616       -4.57268526889189        0.39591514856887
H           62.34525350664487       -4.88919529814172        2.40258794552533
H           62.38914437356021       -7.35224367098681        2.67363244926142
H           63.76235282138275       -9.49145392193120        0.22686684484811
H           64.30071194354427       -7.73569107445882       -1.13941995741240
H           64.24845391454670       -5.27982114554544       -1.41530605895123
H           65.96072000560892       -4.47392424228008        0.42507512885314
H           67.80163956363907       -2.54322065478413        0.15209549324021
C           30.81376187694144        0.05448003126264        0.00838335975476
C           32.03858998740707        0.06177755928709       -0.00294141351917
C           33.38117098460140        0.06889981236409       -0.01760657823622
C           34.61202997400157        0.07005084373262       -0.03355309792136
C           35.94987032329315        0.06861453561015       -0.04782104719017
C           37.18084883972380        0.06330909493703       -0.06027077587089
C           38.52328801016316        0.05568314615293       -0.07015397288347
C           39.74835490007713        0.04716598818197       -0.07714910955379
C           49.43789295882353       -0.06935715311912        0.01512234155781
C           50.66286012570875       -0.08242143615223        0.02702084322840
C           52.00522416363099       -0.09148762702750        0.04127393147447
C           53.23611184441905       -0.09057934507505        0.05848814400385
C           54.57394122293854       -0.08994565540929        0.06952739990198
C           55.80487871819486       -0.08761722877929        0.07678455812566
C           57.14749141497006       -0.07957662159145        0.08113358847997
C           58.37231398867925       -0.06716965938200        0.07993135708827
Zn          44.59336979747317       -0.00421085147835       -0.04394280090505
C           41.15274583955290        0.03626824063677       -0.07502696821768
C           41.80348001314639        1.09583823448122        0.58989944330671
C           41.13262338289687        2.15877177243833        1.27754774102694
C           42.09429773919952        2.97498215709859        1.78045045856979
C           43.36255782477572        2.42133965434967        1.39671135034198
N           43.14846528020920        1.27405624846704        0.68017403639494
C           44.61195104574565        2.95848158456265        1.72621203008430
C           44.62130378139445        4.23320445579909        2.48782039150235
C           45.18160629331951        4.29298261301300        3.76606586693723
C           45.19208896147209        5.47756017406396        4.48105568545769
C           44.64499500961566        6.62911268403909        3.91831393356265
O           44.67629614317676        7.77633630725982        4.64481722171268
C           44.08555571579394        6.58568113853342        2.64348314358791
C           44.07235281912903        5.39205294754377        1.93836750369470
C           45.85424546138038        2.40128205473154        1.40302245985197
C           47.12984095701427        2.98861328718864        1.70335366792633
C           48.08099842676691        2.14783835750500        1.22154254417114
N           46.05353910700982        1.22401274477714        0.73230420732269
C           47.39639707619013        1.04517976843844        0.61478759199472
C           48.03368053031875       -0.05150884825918       -0.00108014314285
C           47.38220662456765       -1.13005296321484       -0.63399853644040
C           48.05110866663106       -2.25085590705525       -1.22460301597670
C           47.08968667809074       -3.06231038776629       -1.73559435738563
C           45.82376174402707       -2.43863897988619       -1.46931614294729
N           46.03845589989044       -1.27009593185313       -0.78829737541963
C           44.57515831348447       -2.95659275437390       -1.83200361888239
C           44.56876076399888       -4.21985007304818       -2.61194510424569
C           43.95740840871128       -5.36683839514207       -2.10491566471059
C           43.95105516312795       -6.54714275917072       -2.83224608580966
C           44.55479043882943       -6.58934065384502       -4.08674191836491
O           44.56755441745051       -7.72315522021591       -4.83459858218335
C           45.16704664307022       -5.45032052293239       -4.60619195967359
C           45.17442484861225       -4.27914328455579       -3.86955930323231
C           43.33298619690436       -2.38777779902910       -1.52820394069460
C           42.05943099319406       -2.90351225200786       -1.94582045995455
C           41.10807331543688       -2.07107523864001       -1.44981052496319
C           41.79087139110772       -1.03325094601444       -0.73634221926573
N           43.13272128939351       -1.24339185078117       -0.80285285520994
H           40.06247927527370        2.25795518385671        1.36652807347102
H           41.95780718380254        3.86674410750357        2.37076870262625
H           45.59726784253957        3.39449402400429        4.20841657805248
H           45.61956272927609        5.52467676805773        5.47499021685438
H           44.26987116380528        8.50903492712790        4.16281970068244
H           43.66460204088557        7.48551406363196        2.20779857376423
H           43.64725286671813        5.36232010396856        0.94121584205445
H           47.27810148243244        3.93016721220253        2.20709832531550
H           49.15252419637034        2.26172359391575        1.26336139848731
H           49.11964190970846       -2.39591361149713       -1.23672144773206
H           47.22467011324675       -4.00727110142721       -2.23661621976374
H           43.49788172674231       -5.33928433879893       -1.12310783701479
H           43.47987864628151       -7.43751706902218       -2.42982815613614
H           44.11415591222197       -8.44748161413554       -4.38288814065077
H           45.62962679777709       -5.49625804527239       -5.58434873702142
H           45.63977855511217       -3.38962967834878       -4.27937828723556
H           41.91242557281845       -3.78243397133848       -2.55259630175839
H           40.03783111569834       -2.14210273641199       -1.56174955033249
