300
 energy: -465.066750094471 gnorm: 0.000362073255 xtb: 6.5.1 (b24c23e)
Co          53.93608092431721        0.03658669901121       -0.13404619016058
C           50.74849075753782        0.56687853046727       -1.02181387861835
C           51.26678199573190        1.31003578408632        0.01965547401816
C           50.50659711413403        2.24608841423959        0.79215889175450
C           51.28067019235851        2.59956093204508        1.84677758053038
C           52.53639515242898        1.92823897766569        1.68216974140652
N           52.51352050431055        1.13833625549785        0.56507697255646
C           53.64878997178081        2.15337846022664        2.48458212605499
C           53.49688832508912        2.99840450905868        3.70079307067963
C           53.66928711117747        4.38387750612996        3.62687423442092
C           54.01496831483069        5.03403656792767        2.31355962777349
C           53.51593084224041        5.15158406605257        4.77555359390202
C           53.19249958991936        4.56169671822797        5.99309531308835
C           53.04734456561454        5.40251961723459        7.23271543402560
C           53.02360196119655        3.18219551602936        6.05412863175727
C           53.17176523618443        2.39477170085202        4.91861278249935
C           52.98378679582305        0.90276310664310        4.98675465177633
C           54.91088046486949        1.71822524396934        2.11741138388639
C           56.12362881794193        2.17015124609168        2.73113241257599
C           57.14187468308705        1.73498044200406        1.94834195383453
N           55.19629532371566        0.94762148992067        1.01320773483511
C           56.55385878214933        0.96080599495106        0.90074580758834
C           57.29505833859924        0.22584217481909       -0.03503305157472
C           56.70013908532986       -0.80497611901843       -0.77579548976826
C           57.44178576603074       -1.83446310491219       -1.43451142827519
C           56.54085728000073       -2.75760388783743       -1.85299541049222
C           55.24511463796863       -2.25315440581558       -1.51052946573072
N           55.36314531599304       -1.06319830718554       -0.83040990206605
C           54.05511342601453       -2.81609545922090       -1.94118258704690
C           54.08633050338850       -4.13320111106379       -2.63440153041016
C           54.28273868147128       -4.20414105512931       -4.01686453721122
C           54.46694979451113       -2.94400613479502       -4.82004656215243
C           54.30751892406244       -5.44723482525524       -4.63828645581349
C           54.14090490890519       -6.61787259016590       -3.90518749027698
C           54.15016539332039       -7.95515063803523       -4.59535981029391
C           53.94543211660719       -6.53445282340603       -2.53059604098735
C           53.91711001620644       -5.30244387520091       -1.88789828778471
C           53.70750264617158       -5.21552327273759       -0.39975362579584
C           52.84983586792485       -2.13045387280532       -1.85287261644566
C           51.65596334363450       -2.51893150957052       -2.54484421711871
C           50.76713350468650       -1.50782779407932       -2.38937120912844
C           51.39491330295523       -0.53398401902502       -1.54801782904255
N           52.67086354059934       -0.92341494445620       -1.23213479478555
H           49.74076922123823        0.78240580189152       -1.35750090039947
H           49.49896942516852        2.55372189651934        0.56143128247985
H           51.04721935979137        3.27041928525355        2.65799175088045
H           53.26290629282586        4.79295794850972        1.56013801445069
H           54.97825953149243        4.66952596840274        1.95155759141674
H           54.07001713492961        6.11710205898996        2.41891494128979
H           53.64784075880693        6.22718708108086        4.71887414110820
H           52.32794423861427        4.95845018666033        7.92120426863835
H           54.00858507169646        5.47550327880560        7.74686829287976
H           52.71964157033401        6.41163697324026        6.98181111045171
H           52.77005991769771        2.71337950433172        6.99932722336685
H           53.88934126143099        0.39132265844680        4.65508556979110
H           52.75376337539543        0.58446137214283        6.00309953675948
H           52.16792255065023        0.59437777737644        4.33012849271507
H           56.17235540168862        2.76630235917595        3.62808926147832
H           58.20154646612954        1.88455670032563        2.07896716528078
H           58.51636418702937       -1.85844998943186       -1.51845826443972
H           56.72082281030004       -3.68639945440949       -2.36997226819933
H           53.59935406088590       -2.29123014867379       -4.70741324203299
H           54.59687954789261       -3.17280744717621       -5.87737797024218
H           55.34405775687674       -2.39589290336060       -4.47084643594040
H           54.46077599283522       -5.50370616798739       -5.71107515817601
H           54.81614552142203       -7.94176425714835       -5.45858683529147
H           54.47156101500052       -8.74271635242135       -3.91346822005389
H           53.14478829798417       -8.19891322222661       -4.94675013394662
H           53.81481950946670       -7.44201021544751       -1.95030180715008
H           52.81156168079949       -4.63274912539624       -0.17737564104672
H           54.55519442509492       -4.71613121855570        0.07325561576459
H           53.59713112015999       -6.20744765256469        0.03736997649738
H           51.53984510426824       -3.43827661486383       -3.09616081581838
H           49.76297457451874       -1.42686379091035       -2.77449474288704
Co          85.06873106449474        1.08609330722126       -0.79648164093474
C           87.54704937996324        2.95682878210964       -2.06766505560071
C           87.15929763758567        1.82952417583707       -2.76354476248365
C           87.80040008478733        1.36530505491962       -3.95704285251547
C           87.29892233258010        0.13287760426341       -4.21375110782599
C           86.30474214795801       -0.12566381154206       -3.21412902358019
N           86.23390521134839        0.91552088426724       -2.32877283593880
C           85.45584214829428       -1.22551284087540       -3.22843054388879
C           85.69638108404378       -2.30981902715045       -4.21980835522558
C           85.12925507407520       -2.24475015324857       -5.49609304914402
C           84.26555793292924       -1.07298356212249       -5.88065258491760
C           85.37156122421634       -3.27073030689261       -6.40198959873358
C           86.16868543653226       -4.35754202274454       -6.05679997870213
C           86.40499826247209       -5.47010255800318       -7.04225932930165
C           86.72604199578637       -4.41184076634492       -4.78362688718840
C           86.49771230521290       -3.39725143809761       -3.86155320783474
C           87.10109091594526       -3.45925090171755       -2.48381161789167
C           84.32906192668800       -1.28587853381290       -2.42608412804692
C           83.27180362299244       -2.23477710425719       -2.60615173074088
C           82.25252425991505       -1.83753214920054       -1.80554907239425
N           83.97939375287824       -0.36011034216737       -1.46949289577601
C           82.71214012190910       -0.68854266678732       -1.09040372777776
C           81.99568849211046       -0.08697664148173       -0.04611156210371
C           82.63027235151668        0.77222395557924        0.86113107512057
C           82.07557086844871        1.13758720869257        2.12674793338740
C           83.04575677150301        1.80048778716822        2.80287009468540
C           84.16765247034660        1.90081029509014        1.91872535546377
N           83.90136409913582        1.25050127686119        0.73617644181275
C           85.29053228377946        2.66856225282590        2.18004513217190
C           85.45611086587631        3.27243343470761        3.53078874345931
C           84.90840261774176        4.52542188225900        3.82099563147837
C           84.13795279500020        5.27614207334178        2.76756536884888
C           85.08158185983666        5.06734012746632        5.08953116795559
C           85.78926018381944        4.38107482777896        6.07071628200124
C           85.98933553581467        4.98758231226750        7.43338482699844
C           86.32867911182015        3.13424210818209        5.77037090471729
C           86.16806412190481        2.57300229578403        4.50935879745483
C           86.75160961712857        1.22312496889935        4.18772778317387
C           86.20466382055162        2.98847698024382        1.18432162009353
C           87.20393680850364        4.00828455379203        1.31403528293175
C           87.75172711586931        4.17723582675169        0.08624000067601
C           87.13449663036381        3.21442439176238       -0.77553089207139
N           86.18478869332505        2.49824905299658       -0.09380822991710
H           88.30049404376430        3.60043007014681       -2.50661173778928
H           88.56029565844835        1.91030557359492       -4.49437933855062
H           87.55094682698866       -0.54289192518840       -5.01528060437952
H           84.82804098631473       -0.14149662700521       -5.79425008832615
H           83.40206568908349       -1.00376106573076       -5.21639281306307
H           83.90980487050307       -1.17243239954183       -6.90568900553766
H           84.93298274419803       -3.22102646307997       -7.39331920123866
H           87.34496278579179       -5.98151769962957       -6.83392256686161
H           85.59711690256307       -6.20267033006054       -6.97634392699157
H           86.43047335374636       -5.08586254009227       -8.06237637108917
H           87.34892156860046       -5.25559215557572       -4.50512644853252
H           86.31415266841474       -3.46874644282293       -1.72717296494914
H           87.71130947991644       -4.35401702810886       -2.36483078051695
H           87.72534395638186       -2.58213349940330       -2.30357645733697
H           83.30886770135822       -3.07442624892953       -3.28130720582942
H           81.28632811684011       -2.29618784845822       -1.67291720543624
H           81.08200127658510        0.88260744497047        2.45737344368479
H           83.00968670277294        2.21368422507951        3.79797656359363
H           84.77075964298047        5.46930132822391        1.89932613842818
H           83.77695182660774        6.22838944366368        3.15494472903745
H           83.28182497667045        4.68804482574712        2.43174382927647
H           84.65643716147655        6.03976623945251        5.31574474644015
H           85.18866647721603        5.68898529556982        7.66886762121280
H           86.01899883977975        4.21438308309676        8.20162961285707
H           86.93695811295343        5.53057429000459        7.46267232889990
H           86.88130923939248        2.59111219328328        6.53004365504386
H           87.45881177365527        1.30425160071096        3.36003183154983
H           85.96258429436688        0.53221511542583        3.88474847418567
H           87.26951636843185        0.80615204741924        5.05092330289011
H           87.42583705994892        4.53497013138644        2.22834711102342
H           88.52691664304437        4.86240068635151       -0.21844386756084
C           58.67244745292854        0.44575575756563       -0.15252143756662
C           59.85995444625208        0.67266340914124       -0.31273900383185
C           69.11776068249999        0.05767432960435        0.00051409528986
C           70.24243403334901       -0.35245061063798        0.24040730576301
C           79.49014875466732       -0.75549508551642        0.33501603284432
C           80.66000188529308       -0.45289368077540        0.16912221779247
Co          64.56383377523606        1.15906934528359       -0.71121674631588
C           61.22647396313044        0.90991722670678       -0.49859499153931
C           61.87852867102481        1.86357751878671        0.29883416552820
C           61.20216608425120        2.79727081820160        1.14136437794286
C           62.14769159956505        3.64071217541891        1.62874570156813
C           63.40695172689568        3.17468039694129        1.13420860803068
N           63.21894028914440        2.10780207360499        0.28833230412062
C           64.63763682092866        3.60691335755493        1.60898248891633
C           64.68861385276585        4.75943390128137        2.54887473956505
C           64.92004385785728        6.04152315018392        2.04372193430737
C           65.10670824077437        6.23939968823849        0.56321848076932
C           64.97608039021667        7.12093434363265        2.91774373758824
C           64.80569548960389        6.94065942588546        4.28600875133037
C           64.88864539388568        8.10971287416813        5.22981967990731
C           64.57647596247018        5.65906359893123        4.77747708289219
C           64.51558695999991        4.56494314534512        3.92281508811345
C           64.26594736516294        3.18324626939459        4.46629426388294
C           65.80958724398675        2.91541050577520        1.33647603094541
C           67.03780109548890        3.09497812778019        2.04797278161854
C           67.88519639482473        2.12774255741424        1.61354446501121
N           65.92757115969903        1.88226102771368        0.43897383195489
C           67.19555479632862        1.40720145913641        0.59041521596525
C           67.81916852893353        0.49160322766265       -0.27196472852022
C           67.21694138082907        0.12363250486601       -1.48769418006401
C           67.92807846933586       -0.44161505697529       -2.59028767977756
C           67.05152788104539       -0.51555193689071       -3.62391970890480
C           65.78986879047908       -0.05975039875792       -3.12495635134225
N           65.92198458236886        0.36852223892852       -1.82388146449716
C           64.58344031733260       -0.23218059532413       -3.78471225077629
C           64.58671195752392       -0.74146335389863       -5.18276164719704
C           64.53413244537464        0.17022134318021       -6.24092963161737
C           64.47912936505774        1.64668745298804       -5.95307766224976
C           64.53016402476050       -0.30014812892309       -7.54833992399815
C           64.57521533236547       -1.66473905296526       -7.81626823208740
C           64.58747070160612       -2.15992778592779       -9.23716647677019
C           64.62748175814835       -2.56223380750429       -6.75507373685371
C           64.63304710065238       -2.11496463763464       -5.43874146778795
C           64.68702352772239       -3.09649744859917       -4.29831425709924
C           63.36582048024654       -0.06969357576276       -3.13481630174390
C           62.11473775681608       -0.54763346659748       -3.63632927582047
C           61.19950135730344       -0.34902200884199       -2.65364281271242
C           61.88107009140656        0.30905179816608       -1.58426491257837
N           63.20452756218599        0.45943371996411       -1.87924127753205
H           60.13658995884120        2.81791091514398        1.30345392350634
H           62.02011453678639        4.48516220377533        2.28663219124157
H           65.98082309250589        5.68533529821098        0.21551509473080
H           65.24387191093811        7.29365416256006        0.32481882854273
H           64.23763573172887        5.86619853193955        0.01826659035568
H           65.15509764126276        8.11628672626106        2.52453975827815
H           65.87994267683608        8.14876144138064        5.68726464283468
H           64.15241097601435        8.01450131734277        6.02868710857144
H           64.71866039540575        9.04893755587899        4.70341948038198
H           64.44298546030782        5.51017498608605        5.84401893184845
H           63.33006957491096        2.78367891182504        4.07090909387884
H           65.06912216076026        2.50628504133315        4.16993633896769
H           64.20523590171631        3.19918890945841        5.55403846372022
H           67.20851506726063        3.85001680928444        2.79832475441453
H           68.90133639556753        1.93789443467331        1.91977848002909
H           68.97290019734014       -0.70669716493966       -2.57657359739924
H           67.22335660127001       -0.87201895468669       -4.62670626340625
H           63.57607979893886        1.88779891138344       -5.38885902617838
H           64.47852597608552        2.22452273813284       -6.87675216012319
H           65.33822068367039        1.94781463981983       -5.35077817628555
H           64.48836016827346        0.40740602473814       -8.36992229142729
H           64.19590317014584       -3.17543624508442       -9.29898489666050
H           65.61067392502764       -2.16546416068399       -9.62004035839007
H           63.99017541978933       -1.51135663355558       -9.87866949658559
H           64.66150481858718       -3.62822334023578       -6.95500830923682
H           64.65548913578405       -4.12143696177625       -4.66657695026224
H           63.84517802126933       -2.94109748362004       -3.62132793048403
H           65.60588216091803       -2.96072430456408       -3.72453553122598
H           61.97241273351769       -0.99703752736891       -4.60584625459409
H           60.14734591789497       -0.58353008450343       -2.65997470778476
Co          74.81710982892051       -1.44355879720765        0.77808432910407
C           71.54627842372666       -0.79143767909664        0.47665656474445
C           72.19557577431722       -0.43590527554008        1.66983503158905
C           71.52806503017183        0.13137102368650        2.79851656989166
C           72.41017082160026        0.09938804938637        3.82986169412753
C           73.63580240466533       -0.42090203296755        3.30620596502386
N           73.48078733169855       -0.75932074197578        1.98375339980539
C           74.83840767474021       -0.44103017321697        3.99781263525708
C           74.84130064407206       -0.11066821991361        5.44865680240077
C           74.96976016855942        1.21402566012352        5.87681492071281
C           75.10960758561625        2.32496523622850        4.87028234220856
C           74.96642947862243        1.49197218750263        7.23883802552212
C           74.83678408387058        0.47363084090789        8.17759736852009
C           74.85414198067508        0.78718853476544        9.64923710816160
C           74.71121320458360       -0.84050603858818        7.73886189523944
C           74.71136325845232       -1.14241098116986        6.38242269753997
C           74.57266514715099       -2.56481043223325        5.90975999602833
C           76.05090458612862       -0.62654366307592        3.34720178880838
C           77.32458152810823       -0.32955185495487        3.92710715677593
C           78.23025669547253       -0.36918983732402        2.91685433248321
N           76.19442138771700       -0.92119119193109        2.01287274017138
C           77.51972230749647       -0.75714541628453        1.74045740998182
C           78.13912780189565       -1.07474870008844        0.52099320895981
C           77.46833974030250       -1.83549467960461       -0.44834509123775
C           78.12312254762921       -2.51411636119487       -1.52081988819445
C           77.19980595227122       -3.33002101063488       -2.09025803989706
C           75.96608104742226       -3.09257114357546       -1.40706293812707
N           76.14976453974431       -2.18320422164493       -0.39589756374333
C           74.73920751004661       -3.60605966396503       -1.81036039397123
C           74.71080302955298       -4.63446245600326       -2.88559272899286
C           74.62127430644165       -4.25461637689606       -4.22861905522266
C           74.55387808867671       -2.79737932202502       -4.60123459982780
C           74.59697388242489       -5.23557449151685       -5.21262555799284
C           74.66020352647492       -6.58558101823495       -4.88090357324833
C           74.65120392227209       -7.63183505245477       -5.96240784925982
C           74.75178720600348       -6.95031797825943       -3.54218597209963
C           74.77799918742261       -5.98675417115809       -2.54054317332725
C           74.87804860156307       -6.38486458570498       -1.09232082685703
C           73.54269518002920       -3.08674170839735       -1.34150697108654
C           72.26790718537929       -3.33075860150948       -1.94482458879732
C           71.40237835051794       -2.43864813035948       -1.39956653131262
C           72.13383486922012       -1.70421316018300       -0.41642536138118
N           73.43108323078260       -2.11198157661393       -0.37708588015867
H           70.50310049590232        0.46580096033224        2.80153080003989
H           72.26450136913610        0.42096322714797        4.84850228659729
H           76.00981313032632        2.18168762857114        4.26955782072290
H           75.17267829403984        3.29279552059095        5.36670107125407
H           74.25432485772129        2.33439367864382        4.19219093879743
H           75.06460548896180        2.51978236524218        7.57264870499561
H           75.87968047439183        0.75268560301566       10.02433467339911
H           74.26435530042626        0.06033814497401       10.20824275332014
H           74.45742906862701        1.78486031215636        9.83872975399974
H           74.60970343308038       -1.64158770494592        8.46365986464011
H           73.68255815490200       -2.67109783453806        5.28668149645693
H           75.43700030695551       -2.84920434081389        5.30664964650698
H           74.49323105933689       -3.25016697821450        6.75300887855727
H           77.48726185615921       -0.09358241022960        4.96631414203871
H           79.29233175304094       -0.19190013706780        2.96244330834500
H           79.16447030577120       -2.40162908582969       -1.77411636490692
H           77.32429115964102       -4.01241178261338       -2.91550586275996
H           73.65476501751641       -2.33960360779694       -4.18427187884236
H           74.53658838728518       -2.67423922939223       -5.68367704106105
H           75.41682758894105       -2.26198492560015       -4.20127896385200
H           74.52700717796574       -4.94282481145755       -6.25516516882532
H           74.35015072124855       -8.60119931891129       -5.56510066158655
H           75.65134637154399       -7.73331700682139       -6.39004362041552
H           73.96827848610252       -7.35184933487324       -6.76524071658849
H           74.80238918606854       -8.00023402856426       -3.27301549491627
H           74.88640407983365       -7.46914304337131       -0.98561845598792
H           74.03378833784122       -5.98287134568124       -0.52918408756148
H           75.79307426823283       -5.98296888303915       -0.65284178505380
H           72.07952521020904       -4.07018948751570       -2.70635441193510
H           70.35262299250948       -2.30926585841048       -1.60784733291905
