118
 energy: -195.403943483535 gnorm: 0.000495579565 xtb: 6.5.1 (b24c23e)
Zn          12.74287785311348       -0.03588467725939       -0.00864923224008
C            9.33156205206990       -0.06484904326005       -0.02165022092284
C            9.96114827743361       -1.30172365927053       -0.09395439567233
C            9.28723437303897       -2.56916408795513       -0.13854102515862
C           10.24636279662609       -3.52745822842887       -0.18291671752972
C           11.51910954339088       -2.85600028697372       -0.17507385072168
N           11.31054292356892       -1.50910293299710       -0.11501036900726
C           12.76989535151352       -3.48485031259248       -0.19375989627314
C           14.00939369646059       -2.83831739017199       -0.14704197721726
C           15.28792232479148       -3.49056865178869       -0.21327569447604
C           16.23575430203550       -2.52033264599283       -0.15781641817053
N           14.20541232893856       -1.48520721640129       -0.06360738287465
C           15.54749112957433       -1.26631306631588       -0.06469978446488
C           16.18070703050355       -0.00808926961970        0.00012929949031
C           15.52670859423044        1.23925768676714        0.06523889076723
C           16.19361738960150        2.50759607337840        0.10007312981577
C           15.22959766552279        3.46212204728844        0.15086587615939
C           13.96229767383321        2.78498814460471        0.15564406837685
C           12.71178268753452        3.41133770781247        0.18838850045831
C           12.69575010353223        4.89380651028631        0.27502406712731
C           12.13493382057038        5.65591632612614       -0.75074666621255
C           12.11881894652843        7.04018079288864       -0.66825001474536
C           12.65732504141698        7.67981324331997        0.44001317745044
C           13.21529917837703        6.92882031029529        1.46569494535704
C           13.23737157920320        5.54453431703128        1.38432090527816
C           11.47168723015884        2.76227409408602        0.14619789554366
C           10.18784249170827        3.40770717551941        0.22412929451073
C            9.24512268856747        2.43429136444030        0.16097752381013
C            9.94023239275402        1.18226922266534        0.05337029472315
N           11.28593726114491        1.41406978766975        0.05144429478044
N           14.18111829489188        1.43417369332342        0.09483785747123
C           12.78016219981302       -4.96821698215626       -0.26844919853476
C           12.25282749305424       -5.62425530437054       -1.38139207129115
C           12.26304869326611       -7.00941669495475       -1.44926673241838
C           12.79403648498621       -7.75562395305097       -0.40596748713488
C           13.31843957786309       -7.11041569744609        0.70581690978000
C           13.31481520449861       -5.72526684722144        0.77463312418770
H            8.24596208246202       -0.07457785895873       -0.01184115559884
H            8.21609637918854       -2.69767466531067       -0.12915272130057
H           10.10921355608321       -4.59674664042174       -0.20717376076864
H           15.43878621907937       -4.55424615962718       -0.30381583968854
H           17.30767475108820       -2.63568562017437       -0.18396207456196
H           17.26336118579317        2.64304703193832        0.08058323564530
H           15.36250758936868        4.53185686053806        0.17047594616607
H           11.72458214074438        5.15843215595652       -1.62259311318119
H           11.68446212385004        7.62218132856656       -1.47363720399559
H           12.64204067494205        8.76194369969059        0.50427314574328
H           13.63454591882509        7.42350292663290        2.33494190576735
H           13.66228079386011        4.95906837961708        2.19216158830803
H           10.03223997304786        4.46977061925195        0.32684594401405
H            8.17210868732069        2.54224436289033        0.19122215450230
H           11.84802696574898       -5.04247525614810       -2.20218462514758
H           11.85499576114022       -7.50849982226634       -2.32138174697823
H           12.79913582779227       -8.83847535231034       -0.45928098425435
H           13.73147671382142       -7.68876346103799        1.52484224843478
H           13.71397124157915       -5.22304899730728        1.64883189601199
Zn          28.79603344732287        0.03552279203757       -0.00719432133256
C           32.20734887675752        0.06528893377635       -0.01836731445293
C           31.57772758124583        1.30411692540728       -0.03705357799930
C           32.25156087154275        2.57234014349271       -0.02643587490686
C           31.29237190728944        3.53159801837644       -0.02927198583488
C           30.01967654273201        2.86034536444406       -0.05080651135825
N           30.22832021320048        1.51212953471669       -0.04928830106287
C           28.76883729371076        3.48930039695862       -0.04232059434136
C           27.52937862234804        2.84125089002317       -0.02391628737919
C           26.25083259740923        3.49571796695939       -0.06177963693568
C           25.30304215037696        2.52394539069793       -0.04854540574514
N           27.33340967658046        1.48579465268530        0.00068055459253
C           25.99134995327900        1.26709331103128       -0.00987551497251
C           25.35819109274518        0.00721225473405        0.00028370721966
C           26.01223827278931       -1.24176170319453        0.01107363914970
C           25.34538458279314       -2.51043865208613       -0.00938708016595
C           26.30945013711365       -3.46622203009673       -0.00008881146744
C           27.57672416644331       -2.78988073135389        0.03415507330686
C           28.82728052170680       -3.41695178024485        0.03986686298895
C           28.84349571611530       -4.90177678516284        0.06211013493376
C           29.40477799235740       -5.61857804799598       -0.99557412843995
C           29.42123627403927       -7.00511116825027       -0.97314435586623
C           28.88260105839202       -7.69230942475016        0.10620532668074
C           28.32413088843279       -6.98661053926507        1.16330185630869
C           28.30172423018210       -5.60010367166483        1.14199697969151
C           30.06732848483792       -2.76656082466081        0.02620865076754
C           31.35119892148942       -3.41468549187696        0.07650455558347
C           32.29387133140387       -2.43939666721285        0.05585738250538
C           31.59871094306518       -1.18392805357344        0.00237585186137
N           30.25301925617840       -1.41550368230630       -0.00997215288556
N           27.35784200267210       -1.43770723529864        0.03214403266863
C           28.75837456784189        4.97451248705718       -0.05246354492260
C           29.28565705485723        5.67836253841034       -1.13582083599911
C           29.27508459081062        7.06516040512565       -1.14351427734143
C           28.74381903546560        7.76523952042425       -0.06885815268046
C           28.21953184893368        7.07226671145925        1.01383669840217
C           28.22348404206316        5.68543918141919        1.02246393548045
H           33.29294867973262        0.07459438640115       -0.00793658077678
H           33.32268822083399        2.70038804530905       -0.01132750426718
H           31.42944842588726        4.60093959595294       -0.00702607968540
H           26.09992162149649        4.56231311231312       -0.10608000134350
H           24.23112688545456        2.64030508826788       -0.06966821804409
H           24.27564487090611       -2.64495041984382       -0.03473096857013
H           26.17659601533953       -4.53580148038909       -0.02702926081972
H           29.81527055237820       -5.08367662963216       -1.84491521411644
H           29.85600485657513       -7.55155270868607       -1.80285659995244
H           28.89818230812173       -8.77620160742695        0.12353072385286
H           27.90480067441820       -7.51860614516641        2.01018217528518
H           27.87645827474474       -5.05030996262317        1.97434810999850
H           31.50684516042583       -4.48018928271553        0.13320763172539
H           33.36688411726403       -2.54850115330634        0.08174494012825
H           29.69067402784952        5.13283237397945       -1.98104079927708
H           29.68313851061447        7.60173087319231       -1.99309844069338
H           28.73845321602533        8.84937985829479       -0.07510604429961
H           27.80632673678691        7.61442805988992        1.85716406562964
H           27.82443934616897        5.14565956004120        1.87401609896611
C           21.38373186937827       -0.00071685129530       -0.01511583688471
C           20.15515519993064        0.00182197694596       -0.01381071950785
C           18.81043052230144        0.00426178902373       -0.01304308113643
C           17.58620029681570        0.00196397247811       -0.00877066925973
C           22.72845658964987       -0.00303928284628       -0.01400303207390
C           23.95269901240736       -0.00212317906242       -0.00998002996702
