348
 energy: -568.917524481037 gnorm: 0.000526044260 xtb: 6.5.1 (b24c23e)
C           74.52380426180035        0.00508311732347        0.12823661180176
C           75.12222195086832       -1.18512068885005        0.52089661901653
C           74.46015892783151       -2.38394454448708        0.90849758605936
C           75.41478807646149       -3.30868235291184        1.22595012883323
C           76.69126102640445       -2.70117668941654        1.05268163158423
N           76.46361392177060       -1.42644113318464        0.61702298619289
C           77.94913896381122       -3.27518962037964        1.26665562270584
C           79.17072859697691       -2.63395050865980        1.04739093560331
C           80.46076082865805       -3.22636424033892        1.35156933504591
C           81.39124173239502       -2.31028728009591        1.01258781219268
N           79.33930395077824       -1.37747144309145        0.55110353517381
C           80.66960727979912       -1.15894697211293        0.50633528737288
C           81.31737256654880        0.00500921830442        0.04742186784048
C           80.69209291225236        1.18187221905471       -0.40526269914549
C           81.34351354213754        2.33422077214975       -0.91903308747629
C           80.38400825189430        3.25055717653688       -1.25045709826779
C           79.11510873527956        2.68748898501372       -0.94171518832235
C           77.85844893142971        3.27415845926475       -1.12684217997341
C           77.83961814073555        4.65972417449930       -1.65581874694979
C           77.21203953106776        4.94377500037346       -2.86978111931269
C           77.19824687430280        6.23839320077225       -3.36627479691156
C           77.80584585437921        7.26522901609999       -2.65641797198495
C           78.43008996814997        6.99155075284578       -1.44701677178883
C           78.45019162445955        5.69722041813639       -0.94951545445055
C           76.63675332345422        2.65092922875024       -0.85332519105873
C           75.34007857939412        3.29505307424452       -0.99402828783828
C           74.41712112476550        2.37716673814768       -0.64268232692712
C           75.14896486862868        1.17656480624083       -0.27902967066046
N           76.48259161858093        1.38120782445988       -0.40777589140963
N           79.35285018011010        1.43395737799039       -0.44267204312668
C           77.96876565703801       -4.67030937042657        1.77192311701928
C           77.39133646074268       -4.98652636051505        3.00243329864200
C           77.41354785857978       -6.29091027908613        3.47304993133250
C           78.00644224855816       -7.29496808840837        2.71972005911111
C           78.58058112209066       -6.98888860735953        1.49327593403779
C           78.56495027890824       -5.68495173303030        1.02170959901617
H           73.43855876878398        0.01119956034321        0.14331792837024
H           73.38952871148949       -2.51097454182968        0.93131058154647
H           75.25525933604568       -4.32591427970549        1.54501818908514
H           77.19436289957206       -0.75890168534827        0.39424025704040
H           80.61172658001361       -4.20290024873916        1.78229957286656
H           82.46337806042381       -2.37905085297887        1.10147565822352
H           82.41076906852270        2.43679430388644       -1.03046462920053
H           80.53843322012739        4.22578634764874       -1.68256000675467
H           76.74904135906021        4.14075737262563       -3.43237827213454
H           76.71195534717451        6.44624676024806       -4.31296636215073
H           77.79271843835423        8.27720314970218       -3.04502689660741
H           78.90302820643923        7.79048129743779       -0.88665104361166
H           78.92574945507535        5.48872682308414        0.00252619752090
H           75.18320140773039        4.31506869901968       -1.30610944256933
H           73.34312689686242        2.47523744630885       -0.61497115073825
H           78.62613698970640        0.78641128182231       -0.15600747853397
H           76.94076249996948       -4.20131998787525        3.59947890595620
H           76.96725372630721       -6.52379131521281        4.43355455590213
H           78.02151245224377       -8.31444466920307        3.08817214735392
H           79.04261363213193       -7.77007229536667        0.89982005554853
H           79.00334375657368       -5.44954418444548        0.05831966488726
C          135.79811148050968       -0.02330444945103       -0.00425750964325
C          135.21009489060162        1.14820967197200       -0.46325719311203
C          135.88160247579833        2.30183270076971       -0.95714368602930
C          134.93505918139840        3.22546434951695       -1.30089601781705
C          133.65453490988921        2.67088744940026       -1.01585884071566
N          133.87146688856930        1.41525142299456       -0.52275402378419
C          132.40203606410537        3.26421228130937       -1.20644024907307
C          131.17566258972346        2.65372949240949       -0.93197264072969
C          129.89234856837081        3.31747385079606       -1.07515516059505
C          128.95372855594294        2.41357119168053       -0.72628264584743
N          130.99572732693449        1.38053192524758       -0.48580337269160
C          129.66383614866484        1.20247588621064       -0.36323872553505
C          129.00531027883790        0.01810435737095        0.01955598643797
C          129.61833019102147       -1.19136754151450        0.39454029149491
C          128.95419242629143       -2.39110618082044        0.76387012184714
C          129.90496921860773       -3.31874387162072        1.08828143727117
C          131.18121403537532       -2.70901651312916        0.93869119449258
C          132.43244430512840       -3.29122567179454        1.16819299973054
C          132.43799541687378       -4.68837463849073        1.66672273984746
C          133.04180340124705       -5.70241011419169        0.92169184144289
C          133.04421716462326       -7.00854093706719        1.38748181275227
C          132.44893139988909       -7.31777008768642        2.60297174102449
C          131.84825825969560       -6.31447774115586        3.35122239001215
C          131.83953464706863       -5.00791581672155        2.88648194072664
C          133.66043887499021       -2.65346470806446        0.96558387435198
C          134.95229800630776       -3.25273086438672        1.26264111127593
C          135.88396415718452       -2.33586133191897        0.93242520174918
C          135.16236176567728       -1.17384381641226        0.44411736888791
N          133.82619274157440       -1.39711755884191        0.48774241096321
N          130.95626040058630       -1.42859900839410        0.50685199602359
C          132.39407521940467        4.64674243996205       -1.74575829623513
C          132.99845949939103        5.68850207685758       -1.04099376345351
C          132.99056951585695        6.97787073205815       -1.55191932599797
C          132.38510554242595        7.24156366083390       -2.77299878452554
C          131.78326711235169        6.21010898210534       -3.48105024226759
C          131.78476316558701        4.92063186171647       -2.97118348265995
H          136.88343407765811       -0.03348978478708       -0.00242415650457
H          136.95251469368202        2.39695822164912       -1.04086540647158
H          135.10291098383567        4.20346758914426       -1.72201804450540
H          133.13527430126183        0.77430276375080       -0.24635036003916
H          129.75142409080436        4.33957830146864       -1.38727063315635
H          127.88232279529356        2.53198949942322       -0.70771932458749
H          127.88412538841970       -2.52060946009074        0.77711597021569
H          129.73976726906014       -4.33784984026018        1.39773745114227
H          133.49549393065200       -5.46513230735632       -0.03413238742189
H          133.51214625580479       -7.78901851225224        0.79771264487895
H          132.45338628740555       -8.33902149344053        2.96674284973218
H          131.38508725499497       -6.54985719007514        4.30307617143450
H          131.38262447268249       -4.22352909280768        3.47975791396720
H          135.10024462825177       -4.23619484282021        1.67896239237744
H          136.95785005677303       -2.40622735601148        1.00779500500482
H          131.68957098683563       -0.75767718298384        0.30245005412875
H          133.45952419787233        5.48775503835990       -0.08020206459866
H          133.45849139547082        7.78072593178845       -0.99295964928015
H          132.38192523373016        8.24954105899304       -3.17209692542406
H          131.31115787348713        6.41022491225630       -4.43654680418716
H          131.32524647045639        4.11373252976290       -3.53109239659127
C           82.72679755064398        0.00766901398955        0.03322027516214
C           83.94371724219386        0.00729288053060        0.01783924310048
C           93.63020129579212        0.02350152865739       -0.11388040733018
C           94.84805984027975        0.02219410102356       -0.11675056772783
C          104.54343839529605        0.03769957411405       -0.10081975153311
C          105.76191443798609        0.03593351258498       -0.10037688011132
C          115.46475270754829        0.01987335216111       -0.06943381509127
C          116.68326397248437        0.01702360329271       -0.05706196832077
C          126.37786568495027        0.02769627845338        0.02977582868613
C          127.59448323099497        0.02592400297745        0.02485414158904
C           85.35221178100663        0.00893027814379       -0.00097123955479
C           85.97812317585203        1.26424142212092        0.11830100537258
C           85.33395032955050        2.51283982622990        0.31435823083909
C           86.29869328280166        3.48207256791690        0.36442435451935
C           87.56112974570917        2.85260038212753        0.19247158637509
N           87.31758191048930        1.51155934589097        0.06135061226977
C           88.81819718766073        3.46898544697782        0.16215513314496
C           90.04227669348995        2.80954202754956        0.04245197646468
C           91.31802405839967        3.49189717661301       -0.07520748756900
C           92.26033318542072        2.52912777226273       -0.15073841790365
N           90.22954012489258        1.46074887749113        0.01289081711930
C           91.55980581615643        1.26243744302662       -0.08287760446407
C           92.22301167629951        0.01859059540743       -0.10307153744358
C           91.59774638277761       -1.24327178959478       -0.10972921868165
C           92.24365173740107       -2.50589877108812       -0.07855854509309
C           91.27871255719455       -3.47489235588163       -0.12141271408592
C           90.01351167222955       -2.83052280549646       -0.18417334336432
C           88.75563957089312       -3.44180424839984       -0.25001461351466
C           88.74541288862024       -4.92374941578716       -0.33107336885923
C           89.34992758098750       -5.57853149599378       -1.40513847352403
C           89.33534771343183       -6.96321377807856       -1.48032266495677
C           88.72381619036010       -7.71020671766140       -0.48269038748672
C           88.12342773116447       -7.06633295223874        0.59080518800947
C           88.13079316222135       -5.68175742923776        0.66663808638259
C           87.52865387154299       -2.77634833386328       -0.24600039600584
C           86.24750248082167       -3.44352037990417       -0.39269655953053
C           85.30502728833801       -2.48085862257610       -0.32143783373574
C           86.01093878107814       -1.22848738140129       -0.13713605316697
N           87.34404588493055       -1.43416208791529       -0.11285616361380
N           90.25672872235117       -1.48301608224529       -0.16068927783278
C           88.83172603013124        4.94920618481431        0.26862507236850
C           88.19130400766157        5.73685403655586       -0.68901520808767
C           88.20880201873001        7.11968447422833       -0.58510157618929
C           88.85954850600403        7.73204084634560        0.47733546309418
C           89.49682522428463        6.95534009917215        1.43549740482129
C           89.48628894205737        5.57265021345375        1.33209375882161
H           84.26897372118312        2.64487661980254        0.41573972154094
H           86.15069779029942        4.53846715584884        0.51829199278730
H           88.03628959089642        0.80446705337349       -0.05131679538535
H           91.45165740309618        4.56086591358809       -0.11341992709318
H           93.32698664252402        2.64157446468900       -0.25907524081292
H           93.31009882940488       -2.64865806830178       -0.01930673680750
H           91.42803834838918       -4.54201052156336       -0.09931715903629
H           89.81621290904532       -4.99650134718427       -2.19241801763018
H           89.80254543503472       -7.46101544229255       -2.32285349341736
H           88.71488256203418       -8.79267174097838       -0.54192743217523
H           87.64714920642986       -7.64539151182059        1.37421515593605
H           87.67173613732220       -5.18063838268684        1.51152080445154
H           86.11023670183990       -4.50155805596838       -0.54647503515105
H           84.23456059964870       -2.58259704513228       -0.39800664534175
H           89.53702717554921       -0.76810857186871       -0.17055565916026
H           87.69441967401389        5.26132873110967       -1.52744101864315
H           87.71304330250197        7.72189880172635       -1.33842397836377
H           88.87049839167297        8.81306991985393        0.55820498566746
H           90.00429876930960        7.42861280502028        2.26878731523293
H           89.97437897951444        4.96678556732533        2.08734799024409
C           96.25503595442757        0.02756022569386       -0.11444193647314
C           96.88094716254689        1.20021704999251        0.35124425376695
C           96.23989356054678        2.34969584056720        0.87956390665771
C           97.20634684047440        3.27003892698400        1.18245100916391
C           98.46676375813068        2.71031526492423        0.83982613122481
N           98.22064354061450        1.45198961263144        0.35913304329442
C           99.72345824971248        3.31819897879908        0.95116747864993
C          100.94637883239972        2.71382557798410        0.65539100918334
C          102.21735769648670        3.41425820420443        0.67682822172722
C          103.16210634270621        2.49952339157729        0.37427342744159
N          101.13833262331021        1.40822839256040        0.31827618189080
C          102.46869575701464        1.24412076251181        0.17026865991764
C          103.13683335394261        0.03233508082550       -0.10196310916157
C          102.50843889917076       -1.19990074366575       -0.37157852688946
C          103.14648068171937       -2.44974174381666       -0.57492307246818
C          102.17982264780822       -3.37743127386065       -0.85375416772738
C          100.92156052687666       -2.71781494936655       -0.83339251164229
C           99.66624233645346       -3.28073360751044       -1.09581004955146
C           99.65400773619251       -4.70537116809116       -1.50981180636339
C          100.32874533490821       -5.11707513377205       -2.66016778043750
C          100.31179109672547       -6.44952761577748       -3.04407852325282
C           99.62735506216276       -7.38709137489629       -2.28262729659243
C           98.95596014407975       -6.98611239017026       -1.13550030362293
C           98.96587614398057       -5.65387156021189       -0.75137268502806
C           98.44271396804527       -2.61621873324094       -0.99857303140024
C           97.17077397725738       -3.20658608305237       -1.37363512433723
C           96.22596142848661       -2.28239031743639       -1.10146327445275
C           96.92131455706665       -1.13012862210765       -0.56482743334239
N           98.25171623564106       -1.34893208212467       -0.53822569354535
N          101.16913761635232       -1.40840422622967       -0.51772227117572
C           99.73902515131087        4.72296258858684        1.42835858909129
C           99.07133900979788        5.72386465775106        0.72105526836884
C           99.08918843945548        7.03416951978039        1.17496271871384
C           99.76751799604078        7.36016026656785        2.34154494562941
C          100.43293775899008        6.37003348231764        3.05171877433424
C          100.42227112805458        5.05986147500940        2.59808056522249
H           95.17614307987829        2.44979853793096        1.01983857280767
H           97.06036196001631        4.24619634594297        1.61520085393263
H           98.93749035946736        0.79927889332520        0.06047093850881
H          102.34583201261762        4.46582539534883        0.87614472227273
H          104.22613743009397        2.64128782464964        0.27771577050330
H          104.20844916550989       -2.61615778614465       -0.50307797084332
H          102.32405263712519       -4.42821370668230       -1.04488915179771
H          100.85194890444899       -4.38431200380593       -3.26455442096928
H          100.83439573188731       -6.75683353103835       -3.94315647691710
H           99.61679590208148       -8.42868502828216       -2.58304403975061
H           98.42216190148210       -7.71490420690933       -0.53566796800052
H           98.45135395212630       -5.34407407727759        0.15138754225845
H           97.04141718562580       -4.18659267344712       -1.80357366184437
H           95.16088473872747       -2.34610313186517       -1.25534124519094
H          100.45397394437057       -0.69792645340967       -0.40432996537675
H           98.55285555742006        5.47450348887822       -0.19815786768847
H           98.57167360857332        7.80462723510011        0.61416814654668
H           99.77802939869927        8.38447709487676        2.69645541327308
H          100.96229905322080        6.61884069798155        3.96483117363295
H          100.93215644633210        4.28531754492256        3.16007343130277
C          107.16830841374509        0.03770696414656       -0.09666865061752
C          107.80116614400391        1.16031357390795        0.47351813376033
C          107.17045935401836        2.25851500055973        1.11100703372343
C          108.14162464807751        3.15400730917472        1.46896619335915
C          109.39504352709868        2.62952599447562        1.05343171543903
N          109.14074473982440        1.41307746392522        0.47828530554394
C          110.65133848391525        3.23650472602232        1.17555935030923
C          111.87000497086269        2.65852966567420        0.81560154819324
C          113.13768902226025        3.36443553342369        0.84553054296448
C          114.08142603186205        2.46872405836666        0.48742167839441
N          112.06168608465170        1.37167842590416        0.41318463966020
C          113.39067942795117        1.21995632256011        0.24046406992000
C          114.05819702804678        0.01955019534326       -0.08038233224030
C          113.42396571602640       -1.19581463062117       -0.40694191976312
C          114.05255561515008       -2.44061334831795       -0.66259177581125
C          113.08133895763099       -3.34251519492326       -1.00373483014204
C          111.82966494349631       -2.67102928925813       -0.97046408493469
C          110.57443090268526       -3.20181529974668       -1.29392079985956
C          110.55654174703727       -4.59667132668590       -1.79836575882899
C          111.26070530926319       -4.94529856187082       -2.95201053337672
C          111.23966379648552       -6.25093186088991       -3.41882788204129
C          110.52173700632886       -7.22467170048779       -2.73784659599711
C          109.82034856103088       -6.88656178651704       -1.58839045125193
C          109.83412970608066       -5.58101939225129       -1.12173134785359
C          109.35572359697915       -2.53130259287083       -1.17855153046217
C          108.08828847406261       -3.07642314508295       -1.62898328325948
C          107.14461854436476       -2.16945013057669       -1.30018034673383
C          107.83551734750986       -1.07419329193328       -0.65129148137886
N          109.16400868015690       -1.30384965974346       -0.62049304891719
N          112.08488850898291       -1.38305121661096       -0.58193191005798
C          110.67273110991289        4.60787153586191        1.74034534299678
C          109.97230303001395        5.64512789139350        1.12257198152369
C          109.99821507457217        6.92451688205857        1.65703691175853
C          110.71738622945539        7.18307304436015        2.81601897407520
C          111.41517344002246        6.15642692909427        3.43780043097730
C          111.39641952928157        4.87725449753800        2.90339611488922
H          106.11029644184525        2.34262222966522        1.28329026532870
H          108.00337428726048        4.08988058047161        1.98521719133077
H          109.85132402455517        0.78865423783843        0.11197690372781
H          113.26463855351690        4.40724931587268        1.08729128577596
H          115.14259396485939        2.62090673433008        0.37736493538109
H          115.11146628451868       -2.62178127774066       -0.58276190367399
H          113.21816495465882       -4.38373850301038       -1.24582187880089
H          111.81039356333694       -4.18361707636201       -3.49391520673069
H          111.78552844158200       -6.50882195856525       -4.31961975200463
H          110.50848034325796       -8.24545342342348       -3.10268037191234
H          109.26024657353184       -7.64393306987345       -1.05121406266753
H          109.29608307658570       -5.32090169715991       -0.21700088829983
H          107.96131732394419       -4.01524882755172       -2.14330270677760
H          106.08335713172092       -2.20939510167377       -1.48383624989743
H          111.37529816407556       -0.67188827499874       -0.44135858946085
H          109.42204185022437        5.44945441307925        0.20885643245890
H          109.45517347167646        7.72388494268380        1.16509012312650
H          110.73455787251903        8.18331070019867        3.23375616370995
H          111.97647725865302        6.35236523332289        4.34467486142267
H          111.93177045839226        4.07364274861936        3.39666318301526
C          118.09004304727351        0.01910081293570       -0.03893219007411
C          118.71443935257203        1.13639145552995        0.55062249955545
C          118.07145666349054        2.22649381960794        1.19033905092700
C          119.03488406749700        3.11630763803148        1.58026354827007
C          120.29678268105827        2.59602766079094        1.18491953934020
N          120.05370570861935        1.38951324903628        0.58411243230911
C          121.55058425657538        3.19266138505353        1.36538430071366
C          122.77828042639838        2.61963178367918        1.02912082828523
C          124.05339666895813        3.30052034900936        1.16607030146220
C          125.00076744084677        2.41729208316512        0.78848857876126
N          122.97002558806531        1.36066382514784        0.54920872003018
C          124.30344696929993        1.20330838859324        0.41361853302674
C          124.96807117918418        0.02444154163607        0.02628622635271
C          124.34651744734705       -1.17604279086342       -0.36459796869086
C          124.99409870578933       -2.38529812618626       -0.72673847861227
C          124.03163961534871       -3.28492780193592       -1.09635904334478
C          122.76756491650612       -2.64476786780130       -0.98456730557557
C          121.51418848251144       -3.17960504004153       -1.30682582221696
C          121.50478333723974       -4.55547149272141       -1.86282986297969
C          122.17601593917979       -4.84852173314142       -3.05081873860943
C          122.16451241084796       -6.13719331424432       -3.56314942996080
C          121.48843884208985       -7.14864677403563       -2.89448854538295
C          120.81871528215828       -6.86534805619023       -1.71183122937241
C          120.82340537900669       -5.57702912789882       -1.19920736235697
C          120.28992512752632       -2.52717733981140       -1.15326214181027
C          119.02371584579024       -3.07421805695960       -1.60481622070366
C          118.07630588197738       -2.17751505272749       -1.25985222990565
C          118.76310625405571       -1.08659038080147       -0.59910427882588
N          120.09262550175531       -1.31102285589551       -0.57257421548969
N          123.00726227477922       -1.37960429816250       -0.51956905778672
C          121.55494355489739        4.54701204884108        1.97208265715865
C          120.90312317099593        5.60824002539965        1.34217294076311
C          120.91009173079418        6.87271748768779        1.91159203339783
C          121.56120445615562        7.09166387579798        3.11796545791985
C          122.20923772607757        6.04046107245199        3.75237432027487
C          122.20949092638268        4.77599795726241        3.18333620910930
H          117.00828171114605        2.30842626919016        1.34311043958341
H          118.88663204959892        4.04549182528400        2.10572893220386
H          120.77215585823618        0.77203347096621        0.22136932965661
H          124.18346797108931        4.31891926479685        1.49455118708836
H          126.07007516449643        2.55127868785757        0.75826804619334
H          126.06052621029681       -2.54084447401952       -0.70584184962830
H          124.18279567099279       -4.30359616351741       -1.41412089571360
H          122.69256700628280       -4.05725512395735       -3.58281782098233
H          122.68516832283392       -6.35210881655063       -4.48977377755505
H          121.48283781325894       -8.15608656584194       -3.29488533612366
H          120.29063394192002       -7.65218088564036       -1.18465492300443
H          120.30978943777663       -5.35941679972296       -0.26938770806409
H          118.90012316681290       -4.00708270417963       -2.13065257709139
H          117.01469097176461       -2.22148607092051       -1.43992013122945
H          122.28792503431457       -0.69089185590434       -0.32607343747393
H          120.40517493123265        5.44247028924708        0.39320299989605
H          120.40545654678772        7.69112391900247        1.41012003225194
H          121.56373645891392        8.08019025995197        3.56304363596918
H          122.71662303141707        6.20556566127720        4.69638363680518
H          122.70549231004411        3.95323271578147        3.68603245131463
