270
 energy: -538.630396722342 gnorm: 0.000607173985 xtb: 6.5.1 (b24c23e)
Co          42.34028985589758       -0.00204000124222       -0.01791455022221
C           38.96913167320378        0.03561701853634       -0.02389109374695
C           39.63683336329796        1.21505283449688       -0.27483682299181
C           38.98375114283066        2.46040280984428       -0.54149647802051
C           39.94653516712518        3.41170129248651       -0.54011649570768
C           41.18820412077555        2.74627044398367       -0.27199796478346
N           40.99292387618868        1.39291350477187       -0.16165306095571
C           42.37296427801638        3.40464934390057        0.02930790519016
C           42.38551138356681        4.88882616866795        0.04834029767190
C           42.20009331775331        5.60319396753290       -1.13442317006513
C           42.21736456457678        6.99325974219475       -1.11721364898457
O           42.04676770921418        7.69931696422662       -2.26113847451546
C           42.41194130249992        7.67119272703887        0.08730705294924
O           42.42066437954003        9.04148008248310        0.07384011937299
C           42.59156333523718        6.95602104495547        1.26843438507891
O           42.77160892999586        7.69071347703340        2.41076064698392
C           42.58317643118838        5.56647109630801        1.25355109100120
C           43.54014844716148        2.71764071018112        0.32496676126071
C           44.78511949439559        3.34923122951738        0.64467911754379
C           45.72672458850124        2.37551904375754        0.65853578712957
N           43.71541519164075        1.35891811037967        0.18504229695031
C           45.05758443321607        1.15487035154614        0.33749755729190
C           45.73004556045759       -0.03705082585639        0.05318980170562
C           45.04499591542343       -1.21186121702597       -0.26928624238917
C           45.69525508423051       -2.43169660387346       -0.62914691300371
C           44.73099228593913       -3.38132727008106       -0.69249645548448
C           43.49609602604050       -2.73962499929245       -0.35443371462989
N           43.69493060030243       -1.39043138221390       -0.16370566574241
C           42.30278877004621       -3.40977152274808       -0.13179039330584
C           42.28228017019885       -4.88951861546131       -0.19494789994853
C           43.10455652686304       -5.63980998534930        0.64635535186405
C           43.08123957472426       -7.02818997047471        0.58753857560855
O           43.86978726973643       -7.76642872841145        1.40601826946207
C           42.23968865195218       -7.67166831429572       -0.32155684218469
O           42.24114483765050       -9.04102208551480       -0.36058382959528
C           41.42175589969202       -6.92252922758965       -1.16384866736084
O           40.62684031066337       -7.62415139469799       -2.03184823311396
C           41.43582923658947       -5.53501367930677       -1.10103738695661
C           41.12471344371709       -2.72906316988366        0.15110425643909
C           39.87730578569924       -3.36571054523020        0.45700613281388
C           38.93687013953185       -2.39166276415697        0.48659259077550
C           39.61231461966253       -1.16117367023496        0.20893217637573
N           40.96146579020566       -1.37026673584680        0.06779447634861
H           37.88561976399500        0.04901296919789       -0.01309561032639
H           37.92158597645729        2.57342553462533       -0.68997322535085
H           39.83702165045116        4.47447386787460       -0.68259008505450
H           42.06060861375670        5.08638306918778       -2.07503497465716
H           42.09281937930690        8.64545975229934       -2.04555503792137
H           42.56663520292980        9.34839577873501        0.98281698524340
H           42.88772890104183        7.11312889239550        3.17653943707809
H           42.71124807804555        5.01542179384769        2.17774124570965
H           44.91528493128611        4.40587034879649        0.81277726691242
H           46.78512744646823        2.46270380999369        0.84429430188485
H           46.75455453789807       -2.53260933834895       -0.80223666621537
H           44.83604608930693       -4.42483326479786       -0.94058685378413
H           43.74997393416034       -5.15178010903412        1.36517277815439
H           43.71193143591056       -8.70599367260446        1.21631511820483
H           41.60699406643970       -9.32134056352472       -1.03967471112885
H           40.10150804780044       -7.02472427433143       -2.57805689793402
H           40.80717859621706       -4.95843253577929       -1.76940113841911
H           39.75085159642449       -4.42296775310244        0.62542093729056
H           37.87777868098037       -2.47965353005732        0.66994441190389
Co          97.86402267300188       -0.06105897618020        0.04698976446762
C          101.23572871128486       -0.09933605228399        0.08864425673803
C          100.57432448144354       -1.24281680856322       -0.30518082423966
C          101.23471859099058       -2.44791373191793       -0.70497512415071
C          100.27208146834276       -3.38811378974846       -0.85043761259793
C           99.02372361528833       -2.75743289066174       -0.53341121205198
N           99.21594889029376       -1.42902032342558       -0.24937212692294
C           97.83375440286402       -3.44721499355669       -0.34359074279149
C           97.82276070780128       -4.92063511865083       -0.52225201037030
C           98.03493268553541       -5.47124300239929       -1.78545557302364
C           98.02009912309090       -6.85114023513573       -1.95418561842308
O           98.21695294592230       -7.39841033151654       -3.17804655774277
C           97.80096339003667       -7.68356389127187       -0.85532312947021
O           97.79505325391045       -9.03977934259455       -1.05151042894678
C           97.59530622415785       -7.13210704578490        0.40656984976268
O           97.39270422993503       -8.01239075309125        1.43676007523662
C           97.60168816548298       -5.75303987461823        0.57742962946920
C           96.66340362608052       -2.80462476023533        0.02997890870653
C           95.41872665309231       -3.47321804476564        0.26388820127802
C           94.47938325967530       -2.50998726551977        0.42076238043622
N           96.48913316362699       -1.43946868627389        0.07623413922476
C           95.14843269975547       -1.25730447517183        0.26572933484477
C           94.47358873379181       -0.03901216801801        0.14685161739252
C           95.15431943527558        1.16674640441499       -0.04456822625186
C           94.49813523012728        2.41708684298670       -0.26068558480096
C           95.46219209235778        3.36867061608619       -0.24683547393681
C           96.70260913090333        2.69641223231854       -0.00028335245042
N           96.50601102738700        1.33413227478687        0.05421351544668
C           97.89834054400707        3.34224167637892        0.27225170469592
C           97.92149543516885        4.82159437551073        0.35022858017206
C           97.12061492464615        5.48926876936802        1.27721602194539
C           97.14933252997392        6.87687471721917        1.35161968489121
O           96.38261830807963        7.53483618057200        2.25469597289247
C           97.97390160288221        7.60248039793132        0.48999266325001
O           97.97783413381897        8.96912569718559        0.58273992749619
C           98.77030272250447        6.93569851083261       -0.43790835222626
O           99.54929363744139        7.71548607813473       -1.25181456196157
C           98.75204928567344        5.54848963699824       -0.50746899321561
C           99.07712311143267        2.63834011242231        0.48774970831565
C          100.32085414646824        3.24417063960373        0.86289138557504
C          101.25992535422347        2.26930910435456        0.82180804814009
C          100.58805829687475        1.06982730303603        0.42498736526114
N           99.24112921407929        1.29320296461778        0.28217957143557
H          102.31877320810725       -0.11612156960395        0.12135205171421
H          102.30053013546772       -2.54504544980622       -0.83774568446791
H          100.38549487264046       -4.42502169190515       -1.12203044698680
H           98.19373799423576       -4.83374752773736       -2.64552341042592
H           98.16768813205222       -8.36480053481368       -3.09182621775191
H           97.62935037819666       -9.46490913562165       -0.19501486706016
H           97.25800256553218       -7.54180952364021        2.26977723305745
H           97.45443879359490       -5.33042391473239        1.56430417697751
H           95.28680490267755       -4.54272450406242        0.28380048305828
H           93.42205821167734       -2.62121844147339        0.59965610668994
H           93.43571555029446        2.53439255354415       -0.40122475701104
H           95.35386292757650        4.43216903786946       -0.38360054919881
H           96.48851643728160        4.93592417978932        1.95964610323639
H           96.53993839387874        8.48801239652411        2.15251869158617
H           98.59650044119350        9.31233453866003       -0.08168854383346
H          100.05828039840054        7.17030974681402       -1.86610387023256
H           99.36507733153367        5.03656160021592       -1.23995833080254
H          100.44511632304541        4.28272383762813        1.12387152397162
H          102.31635601934816        2.33875868859895        1.02718506739899
C           47.13121101328183       -0.05042432214267        0.07563003849779
C           48.35646769666967       -0.06167380126569        0.09222449648795
C           49.69712492078191       -0.06811085734047        0.10454361445740
C           50.92893356418480       -0.07058974435598        0.11146534940895
C           52.26469970421905       -0.07156789960660        0.11135131957107
C           53.49667356542478       -0.06941773520582        0.10515497500496
C           54.83696750372504       -0.06759975662613        0.09208891365371
C           56.06261372010171       -0.06355542522617        0.07437444814743
C           65.63810736320880       -0.04205700523575        0.07614196304216
C           66.86374415773855       -0.03793845961386        0.09883428199086
C           68.20368908820690       -0.03359827780084        0.11833077829742
C           69.43579132967386       -0.02943410443009        0.12776947039242
C           70.77114837699128       -0.02522037941790        0.13099948277791
C           72.00327704334084       -0.01899356302849        0.12737587126861
C           73.34327228771599       -0.01418180536484        0.11445564751678
C           74.56901088301150       -0.00743542017912        0.09718186766102
C           84.14221981385136       -0.00258323967611        0.17928029258530
C           85.36772884717540        0.00102621782546        0.21098293803749
C           86.70768394921133        0.00073689315287        0.23668808802710
C           87.93975146578036       -0.00070023962105        0.24616347523859
C           89.27539505411617       -0.00425467860717        0.24938576044138
C           90.50735430539922       -0.00934087078931        0.24006341184630
C           91.84780096733893       -0.01719022397000        0.21952825260575
C           93.07293152307976       -0.02865951990184        0.18979921094323
Co          60.85058273313712       -0.04843133454542        0.00835422136053
C           57.46225437712595       -0.05775966380980        0.04665087662846
C           58.14828507634489        1.09875099938015        0.43339294391780
C           57.50658642769169        2.28724506528935        0.89573346222153
C           58.45768707222428        3.25388456512078        0.92796310553289
C           59.67495622425308        2.65025581172310        0.47881035093076
N           59.48496466597888        1.30905738215151        0.24513880540479
C           60.84314093327192        3.34732531659223        0.19343529263417
C           60.83098481174369        4.82475287409442        0.26251488856661
C           61.72379719593311        5.50233581398671        1.09468323906938
C           61.71786499189980        6.89205385812375        1.17149737190929
O           62.57324975787263        7.56199611724141        1.98641927533467
C           60.81424825723298        7.62617091457106        0.39564950638276
O           60.78913498596415        8.98240351225421        0.44268600833550
C           59.92607775761837        6.94088382619692       -0.43840539409961
O           59.07132555261393        7.71969625061596       -1.17430116818720
C           59.92159638250486        5.55521646273942       -0.50607716830055
C           62.01995212043393        2.69221057827499       -0.14431792714076
C           63.24885325842829        3.34750839957378       -0.47583620997948
C           64.20923120218092        2.39028626891943       -0.49503723785232
N           62.21412711938830        1.33271277284945       -0.05319847230348
C           63.55966620543160        1.15396671233789       -0.19802821296376
C           64.23865233182637       -0.04529605055432        0.04579206984273
C           63.55395207181474       -1.24928780991137        0.24074433224419
C           64.19784375771926       -2.49638108204184        0.50554923509869
C           63.24637667318822       -3.45558119195082        0.39218035555144
C           62.02620845543497       -2.78838824221344        0.05248536739482
N           62.21615504503457       -1.42671271802572        0.03034617311571
C           60.85628597495928       -3.43106999038743       -0.33042403081777
C           60.86148661567225       -4.90445836294255       -0.48014484880907
C           61.75137257330915       -5.51113217978827       -1.36798895545692
C           61.74567523260806       -6.89249411258934       -1.51983876638600
O           62.59007924304859       -7.49239379542975       -2.39121608381882
C           60.85586074385025       -7.66993942083585       -0.77513407162221
O           60.88741400798123       -9.04444638771288       -0.95503198904783
C           59.99512004219379       -7.06858329316579        0.14120608477569
O           59.14916543516105       -7.82498627464103        0.89792910899823
C           59.98420826613464       -5.68469670462311        0.27411797265747
C           59.67981284139099       -2.73150684474840       -0.56406009741004
C           58.45035031208876       -3.32973462034596       -0.98842348100598
C           57.49093922084040       -2.37956678281783       -0.86569805165219
C           58.14102981600194       -1.20210306317861       -0.38601831678297
N           59.48701607351223       -1.40145951163633       -0.26998957023079
H           56.46097553856702        2.36093136989480        1.14796771586212
H           58.35343282100501        4.28359222143538        1.22904910376032
H           62.41752350067247        4.94342232694427        1.71255679768479
H           63.14282731308050        6.95176301790837        2.47300017062573
H           60.09788636691118        9.29508428325282       -0.16318618959725
H           58.49376074140310        7.17413739916538       -1.72386538957576
H           59.23275728802476        5.04811150847708       -1.17135417826973
H           63.35506791885037        4.40351505872176       -0.66352696024734
H           65.26453025368916        2.49719095213027       -0.68808085078254
H           65.24539448203184       -2.60849496970606        0.73436729471861
H           63.35168755508790       -4.52017516397858        0.52310859788472
H           62.42963707316252       -4.91550358382971       -1.96508538059431
H           62.43701083497144       -8.45149616539882       -2.35439280479018
H           59.99331457336603       -9.41030867986757       -0.96374928728855
H           59.44030851677275       -8.74734843675721        0.91055263874105
H           59.31254809095237       -5.22884616916405        0.98993477706333
H           58.34358049519950       -4.34731277321011       -1.32714732221505
H           56.43531934353501       -2.45603711346874       -1.07089915554420
Co          79.35616653221395        0.00172226353397        0.05141084490214
C           75.96843478563795       -0.00155189104743        0.06921646535162
C           76.65387938564641        1.16663517235092        0.42008254798348
C           76.01088329280333        2.36943281274469        0.84230004453403
C           76.96344883746548        3.33499173783712        0.85264049712332
C           78.18312760306173        2.71616065041779        0.43130113986005
N           77.99170129647310        1.36928224969439        0.23361302000075
C           79.35675001675023        3.40137324139057        0.14088979877334
C           79.35057499813077        4.87997381481361        0.17643446729199
C           80.23543219778655        5.57097570148979        1.00613079908950
C           80.23390959388571        6.96193080827294        1.05500502651963
O           81.08058487401631        7.64509568914670        1.86776140404616
C           79.34327920454041        7.68345604416687        0.25267134624639
O           79.32280716115912        9.04030289638472        0.27224703469624
C           78.46334633153656        6.98467671591333       -0.57896805607319
O           77.62138367888480        7.75166593620719       -1.34145668246767
C           78.45402838343878        5.59790887967729       -0.61854334172636
C           80.53545186055224        2.73363398419372       -0.16548040762033
C           81.77039227011647        3.37646685971665       -0.49839833054070
C           82.72799982781061        2.41635504865676       -0.47969093020288
N           80.72397242892643        1.37658457918862       -0.03658853737461
C           82.07101983985933        1.19027950827440       -0.15827547922418
C           82.74326014269248       -0.00276277196992        0.13158696099750
C           82.05145400373041       -1.19912969506608        0.34837589403978
C           82.68688382517256       -2.44269108078503        0.64703008610026
C           81.73647052853963       -3.40239866034730        0.52658006975796
C           80.52494041029647       -2.73856460209399        0.15220789225289
N           80.71753900872173       -1.37824177356321        0.11346996214155
C           79.36006376268786       -3.38527631701516       -0.24177000856348
C           79.37117151538197       -4.85927872791755       -0.38360900819964
C           80.27769868624634       -5.46508572753090       -1.25511140875282
C           80.27906603138702       -6.84681454889871       -1.40439088355643
O           81.13994121706791       -7.44548217937632       -2.25997336704679
C           79.37875375897102       -7.62503569796062       -0.67348114387391
O           79.41606087332552       -9.00051526923271       -0.84793703996187
C           78.50153340113084       -7.02454797252556        0.22786670784286
O           77.64665757682646       -7.78371435017340        0.97118208687761
C           78.48439836534436       -5.64055622284026        0.35856610395022
C           78.18588915683557       -2.68857092573451       -0.49200035172241
C           76.95657819696024       -3.29199173555919       -0.91017036387999
C           75.99652098986245       -2.34155389437890       -0.79617743294876
C           76.64675132551642       -1.15747589615544       -0.33289171949979
N           77.99244252148625       -1.35433885795238       -0.21519173604501
H           74.96362480089665        2.45216372799811        1.08472703462623
H           76.85873996898060        4.37334058203410        1.12221406570673
H           80.91870651423206        5.02202209728887        1.64423558838486
H           81.64293040669672        7.04310438678009        2.37268364714737
H           78.64085500021629        9.34352886691428       -0.34877472316485
H           77.04772410609078        7.19748509292751       -1.88643683192554
H           77.77166097560128        5.07994780490468       -1.28211743712728
H           81.88226298752694        4.42690682836187       -0.71212606687695
H           83.78606520335526        2.51533366011179       -0.66133233321608
H           83.72913986659182       -2.55301166616504        0.89962166417309
H           81.83691552147947       -4.46509959410537        0.67554792466868
H           80.96399250418409       -4.86832942389287       -1.84181959098319
H           80.99134670856921       -8.40528093565514       -2.22231850561399
H           78.52287740322373       -9.36450861126753       -0.90190791561970
H           77.94131713149302       -8.70537449691948        0.98451799839304
H           77.80063228101753       -5.18545629746678        1.06331111013739
H           76.84993395341152       -4.31311750962880       -1.23802068949402
H           74.94082698617068       -2.42097752652215       -0.99991092347409
