124
 energy: -225.221452383209 gnorm: 0.000828162904 xtb: 6.5.1 (b24c23e)
Ni          14.34018915735598        0.01027643714056        0.01193515249885
C           10.95058567490499        0.03516038746597        0.15326562016206
C           11.61097586407835        1.24434254848674        0.21898570236665
C           10.94341431948962        2.50690895265237        0.30973077872276
C           11.90747486281675        3.44629580955075        0.45119526828883
C           13.16322142498327        2.75425661567926        0.46030754518803
N           12.97258183938359        1.40753893312342        0.27803190853127
C           14.38854588432386        3.37217016455442        0.67604316508354
C           14.41357293378289        4.82558653944943        0.96202843656974
C           13.76839033267721        5.33754199361524        2.09009477505055
C           13.79644476538277        6.69351425845291        2.36268250649343
C           14.46943837098421        7.56742122071983        1.50366415683018
C           14.49974895003190        8.96356881672146        1.78033559698795
N           14.52588590592278       10.09199115856885        2.00434894622987
C           15.11352512874706        7.06032732181184        0.37113884154485
C           15.08615701242164        5.70260570115527        0.10784888677062
C           15.59323312097156        2.68198310818209        0.63798457227567
C           16.86282697264236        3.28092237053682        0.91878939565607
C           17.80142158327782        2.32930733377903        0.69857468477114
N           15.75110415728149        1.35957982431981        0.29059925202491
C           17.10308825296691        1.15134185744784        0.29342260678455
C           17.74959432292314       -0.01871508553234       -0.11443158617667
C           17.05517598385391       -1.17523085850779       -0.47886909998203
C           17.70149322618861       -2.36225567601430       -0.94009282998214
C           16.73290600959522       -3.29639473884912       -1.09608915512810
C           15.49791437528867       -2.67839983025521       -0.71818308185763
N           15.70363446047868       -1.36065372059297       -0.37785217394022
C           14.28309000935272       -3.34925427404453       -0.66385369295387
C           14.26016712338023       -4.80184376056799       -0.95478804314907
C           13.51714908532258       -5.29774291497641       -2.02852414769941
C           13.49524425285645       -6.65332914172606       -2.30360859305232
C           14.21575267546578       -7.54296172305935       -1.50111476659435
C           14.19415074834262       -8.93897385129112       -1.77926202295067
N           14.17291893705210      -10.06676868095004       -2.00711784402393
C           14.95866664314179       -7.05178790446222       -0.42350872617203
C           14.98075775851135       -5.69440424648134       -0.15792892680830
C           13.08884491124743       -2.71440708406744       -0.34628270902899
C           11.82817312720833       -3.38825965699641       -0.23361804830310
C           10.89361775980769       -2.43585814544505       -0.00689755259967
C           11.58494464355876       -1.18339961293876        0.03084956072843
N           12.93415114436653       -1.36614963279802       -0.14386208181374
H            9.86788323835844        0.04327712723341        0.19941563058974
H            9.87378776984994        2.63666743444802        0.26757931066340
H           11.79211670090617        4.51439686454004        0.53879100981731
H           13.25625187985031        4.66136911095658        2.76536352014967
H           13.29916126297840        7.08302104778513        3.24330047931402
H           15.63327194261029        7.73513301759964       -0.29891422044116
H           15.57775234812475        5.31391835004529       -0.77681290974556
H           17.00745287990313        4.29684191905993        1.24796464479131
H           18.87236473671858        2.40355741805302        0.79596514748093
H           18.76093383106651       -2.45292842598935       -1.11730333696972
H           16.83495939202308       -4.31249568225530       -1.44034707118530
H           12.96657563828062       -4.60952076948640       -2.65988710039155
H           12.92136351975073       -7.03033350568007       -3.14203308430465
H           15.51548318544167       -7.73908149649668        0.20259315026500
H           15.54893725842983       -5.31822792609894        0.68527730556865
H           11.68989058418881       -4.45410271998078       -0.31515272556798
H            9.82967049509221       -2.55088791841297        0.12557318058113
Ni          32.89990931519252       -0.01263609914810        0.01300050835175
C           36.28948732548346       -0.02864924026870        0.15546150656740
C           35.62944172453918       -1.23249580870872        0.28814502601614
C           36.29735833624316       -2.48798077032678        0.44809400253464
C           35.33356150216176       -3.41850329899859        0.64064001884777
C           34.07760853990469       -2.72737180278873        0.61177095912955
N           34.26786103017677       -1.39258109319796        0.35601971964347
C           32.85245892497192       -3.33289940679124        0.86087363814051
C           32.82777351861930       -4.76891350328627        1.22430538474094
C           33.47325063880368       -5.22017471280532        2.37774106774287
C           33.44615708738391       -6.55997283320561        2.72149221854253
C           32.77381615961856       -7.47837447909372        1.90976487586230
C           32.74486684541216       -8.85813078216617        2.25930022007638
N           32.72238298745440       -9.97309481217340        2.54323456742747
C           32.12917778409296       -7.03213674275562        0.75218032362986
C           32.15558228966769       -5.69024700565109        0.41766436912734
C           31.64762151647698       -2.64603962264342        0.78529242575827
C           30.37820641085204       -3.22894365838926        1.09869098030342
C           29.43936444816951       -2.29105350152477        0.82669086599770
N           31.48944457025180       -1.34474910252745        0.36583331906094
C           30.13741267922239       -1.13702982136166        0.35722307574939
C           29.49055946616418        0.00835315338008       -0.11509353147373
C           30.18469149675636        1.14299196844177       -0.54332945501542
C           29.53819700499956        2.30230328184083       -1.07016831897571
C           30.50646302008544        3.22682090648934       -1.27721719788981
C           31.74148239538892        2.63124013868909       -0.86495929316051
N           31.53613806465890        1.33427322992661       -0.45225251629778
C           32.95598772158122        3.30460572246690       -0.84733086738583
C           32.97856074370265        4.73947082426491       -1.21587242026210
C           33.72230329606340        5.17760887734144       -2.31398672529884
C           33.74602805646765        6.51688927108987       -2.65948315974029
C           33.02670004941721        7.44828076013338       -1.90473803857308
C           33.05204285826656        8.82786380635593       -2.25512067605027
N           33.07186361509385        9.94333240445046       -2.53721300147132
C           32.28225644887471        7.01496507992843       -0.80357917381237
C           32.25829879877278        5.67326721611725       -0.46747505177520
C           34.15051126930547        2.68853196959132       -0.49555347987662
C           35.41110798990425        3.36778994497166       -0.42075960921207
C           36.34591171115513        2.42957848541844       -0.14193651091291
C           35.65480296515904        1.18104668036681       -0.03453240348617
N           34.30557938328656        1.35355741478255       -0.21891202843608
H           37.37218833888068       -0.03391422043392        0.20194388442323
H           37.36701749940139       -2.61960326597657        0.41319481685644
H           35.44928940572513       -4.48016948263978        0.78650866343343
H           33.98498954861117       -4.50905662601862        3.01635524474968
H           33.94381805112359       -6.90202708491471        3.62139079478693
H           31.60994616756919       -7.74179219576319        0.11873789731323
H           31.66368344470937       -5.34903428169306       -0.48624447593423
H           30.23392583754191       -4.22532444028484        1.48313776878801
H           28.36844950295102       -2.35999218013842        0.92812198694822
H           28.47884393970166        2.38259461066284       -1.25283749258391
H           30.40426529801066        4.22217216465659       -1.67748972472785
H           34.27225416889583        4.45663680676268       -2.90823400334267
H           34.32082876917080        6.84904690525666       -3.51606885029919
H           31.72604736060919        7.73460009439873       -0.21435275309675
H           31.68916370772657        5.34232071148531        0.39389425860104
H           35.54928314184494        4.42746359452103       -0.56140986846585
H           37.40988855343230        2.55190699461663       -0.01645727655896
C           19.15390158888892       -0.03012976444465       -0.15590757854887
C           20.37760546411531       -0.02768271282166       -0.18087808946698
C           21.72075706956684       -0.02309000799245       -0.20050613234555
C           22.95081998419206       -0.01250618139731       -0.20852192166499
C           24.28936689389510       -0.00192150382579       -0.20885112053852
C           25.51940614374652        0.00914504072753       -0.20136315614946
C           26.86257926030834        0.01408828045578       -0.18203934177504
C           28.08628149351719        0.01717604744286       -0.15757735233271
