256
 energy: -470.521926478267 gnorm: 0.000710289543 xtb: 6.5.1 (b24c23e)
C           53.97268758679115       -0.09587241524875       -0.02731835529960
C           54.59229378270720       -1.33853723275585       -0.05449414216704
C           53.95053248707317       -2.60888267568444       -0.07070943240194
C           54.92057471798923       -3.57056012030607       -0.10056756675128
C           56.18663471949321       -2.91803241552895       -0.11296725983941
N           55.93772914197595       -1.57565678169897       -0.07561579765100
C           57.45523671819394       -3.50867432440953       -0.13000402555564
C           58.66558798002335       -2.81138656623140       -0.10014836158306
C           59.96912601769308       -3.44613300688243       -0.18039322944244
C           60.88059716498854       -2.45287865585211       -0.13705924387519
N           58.80740005521041       -1.45977826283071       -0.02724116281014
C           60.13353971215844       -1.21332004402796       -0.03919754897424
C           60.75699717822780        0.04832969513310        0.01301596315553
C           60.11303794353982        1.29811767897815        0.05414848501843
C           60.74724125438350        2.56533908235537        0.15107775419798
C           59.77323155453135        3.52415830158038        0.18688564699538
C           58.51226403509052        2.87092518779755        0.10353453516804
C           57.24414300844241        3.46150018744618        0.12956654603105
C           57.19711474152913        4.93989539202344        0.21369779584626
C           57.77067280277471        5.72924652698558       -0.78691418591370
C           57.72333786404162        7.10847275481020       -0.70106886707908
C           57.10689845925914        7.72515751794256        0.38937675662275
C           57.08408202739489        9.20665016673117        0.43812996040476
O           56.46915677959343        9.69855355710413        1.52441715937784
O           57.56476037028213        9.92230687326960       -0.40336166733474
C           56.53487512222137        6.94189518367591        1.39238796179562
C           56.57864881413498        5.56190309591630        1.30172319011589
C           56.03349976573373        2.76124346061330        0.08918497237260
C           54.72358038012909        3.39345592802619        0.05246550597703
C           53.81896559064229        2.39510835050450        0.00711453703895
C           54.57483933086360        1.15477392743761        0.00761820054322
N           55.90497167505693        1.41423196756691        0.04890205954864
N           58.76953666525392        1.52778426732670        0.02968084492535
C           57.49877943462792       -4.98918220661345       -0.19142368799111
C           56.94162016971646       -5.66702373720737       -1.27883778054540
C           56.98145104025093       -7.04891585893033       -1.34229128548407
C           57.57546040104144       -7.77741012937196       -0.31133583121061
C           57.63864339582872       -9.25857991216604       -0.32925601616193
O           57.08789146404878       -9.80608557531270       -1.42346617301682
O           58.13108320678798       -9.92890562624158        0.54205552971313
C           58.13106781894275       -7.10449855147612        0.77858988693005
C           58.09571814477483       -5.72352953823394        0.83683889405994
H           52.88752731429956       -0.11404825720079       -0.03505130960843
H           52.88219070825813       -2.75417200568176       -0.05518510350673
H           54.77800368072561       -4.63899794282758       -0.10432383235127
H           56.65789331914105       -0.86118830116383       -0.06118117242451
H           60.14167743719792       -4.50597080509528       -0.27393715176806
H           61.95530444979676       -2.52634547191516       -0.18034703795084
H           61.81376706477213        2.71488502246424        0.19934292292959
H           59.91317162796921        4.58906936726938        0.27560223056255
H           58.23681206614403        5.25335278422186       -1.64225682583120
H           58.16090480768511        7.72682063903284       -1.47716707409836
H           56.49741048941689       10.66816146643606        1.48102228161032
H           56.05873275913449        7.41600501866509        2.24246890142661
H           56.14624201680101        4.95338184738157        2.08790744889605
H           54.54615131438670        4.45683207372067        0.04641424328998
H           52.74289567478390        2.45970371144838       -0.03128832756322
H           58.05218442931280        0.81152540012906       -0.01626868703024
H           56.49198913384991       -5.10098569471203       -2.08696625584073
H           56.55306922831070       -7.56660686457450       -2.19239307157502
H           57.17173850149291      -10.77134491373556       -1.35946968414052
H           58.58751109134024       -7.68083282736442        1.57584223075393
H           58.51676441911323       -5.20339109769861        1.68965060486426
C           93.36623983476528        0.03749213952226        0.08795070451414
C           92.76976017338201        1.26477750461519        0.34600975252807
C           93.43357214895103        2.48603937859426        0.65300924086820
C           92.48223410504168        3.45166270796801        0.82315273646855
C           91.20625884298462        2.85436403366157        0.61203972039106
N           91.43035831079030        1.53452519226688        0.34051456097950
C           89.94986444662173        3.46689670923375        0.67533106519897
C           88.72880225457415        2.81264277072001        0.48759687176992
C           87.44206304780039        3.48571183795419        0.47760248791006
C           86.51210990250863        2.52833964085079        0.28232732536987
N           88.56087321585377        1.47944569800460        0.27751517141188
C           87.23138190372475        1.27420433474536        0.16651194138143
C           86.58334199858628        0.03476105410683        0.01149057800386
C           87.20287172889360       -1.21963620004115       -0.12931498698163
C           86.54491971543918       -2.47077460383758       -0.26868182019128
C           87.50036567281339       -3.43518182128279       -0.43152077594988
C           88.77288327024021       -2.79967473082640       -0.40700161482012
C           90.02849947698093       -3.40285114189536       -0.54219076633728
C           90.04343001193733       -4.86060052042448       -0.80495493985841
C           89.42159005752177       -5.37992248164731       -1.94417526866344
C           89.44049123416977       -6.73988553153900       -2.19194024128245
C           90.07660856474365       -7.60835432805143       -1.30276305395149
C           90.06934680870970       -9.05816638975920       -1.61179461514484
O           90.70984503593687       -9.80498490784947       -0.69969881617153
O           89.54607653974426       -9.54393103931708       -2.58227542150856
C           90.69559708910062       -7.09603431834212       -0.16206853304815
C           90.67983076745178       -5.73384923718681        0.08127464486823
C           91.25219833443333       -2.73060765247797       -0.45296190234164
C           92.54939261398684       -3.35811525312592       -0.65426916643131
C           93.47262815275958       -2.39248675309077       -0.47441940084380
C           92.74056635288886       -1.17377974973097       -0.17638569603826
N           91.40623454770589       -1.41252321167787       -0.18443730357325
N           88.54189233263641       -1.46498149155212       -0.20721340489416
C           89.92858144505183        4.91925023056374        0.96937936919563
C           90.56348544672760        5.82738620937537        0.11823534020742
C           90.54576339518977        7.18311901459452        0.39613969808580
C           89.89522728588345        7.65292396500694        1.53746772661615
C           89.85228148528647        9.09399231015710        1.88281176046355
O           90.48685178240119        9.87747647850787        0.99765518809096
O           89.30679530931023        9.54362981791038        2.85835647724974
C           89.26021911894075        6.74911830315313        2.39156404973957
C           89.27443841184858        5.39595726551264        2.10899666643140
H           94.45152697767557        0.03350206282655        0.09729858530969
H           94.50293838396756        2.59593829546764        0.73719067561646
H           92.64381906345963        4.48602359305878        1.07981632429877
H           90.69760376096099        0.85563995822420        0.16328118418555
H           87.29330079913677        4.54737270090787        0.59007349256263
H           85.44134634665399        2.63601617915598        0.21697862189238
H           85.47572656978922       -2.60691270837928       -0.24536128152189
H           87.34072162415413       -4.49443500598687       -0.55003467659567
H           88.94044777234672       -4.70641606218164       -2.64439822083029
H           88.96578394993708       -7.14803258019406       -3.07750776521863
H           90.66073712632128      -10.73496002873503       -0.97457510974793
H           91.18661856869804       -7.76673623290648        0.53308373011583
H           91.14896085812077       -5.33796415353341        0.97488236985514
H           92.70664173693105       -4.39319214259615       -0.91148602249507
H           94.54694370539075       -2.46442540767329       -0.53962444378449
H           89.27253411197566       -0.76484162834529       -0.13191791429603
H           91.05672316853662        5.46511418550046       -0.77678937120461
H           91.03531017641855        7.88140126244763       -0.27238267874387
H           90.41107410814877       10.79924754203877        1.29341719154082
H           88.75994810735304        7.12467147889856        3.27746805081186
H           88.79191046976442        4.69444084240502        2.77996548101570
C           62.16688674045059        0.07610763327396        0.02754218268957
C           63.38306509657032        0.09604836348303        0.04528946839959
C           73.06068671433700        0.11150440711234        0.08046478170607
C           74.27836126076835        0.10320104684298        0.07408652707846
C           83.95557838525202        0.03516700759051       -0.00613352064992
C           85.17157007167201        0.03404212820065        0.00082679328167
C           64.79222475081916        0.10940304094020        0.06430268859436
C           65.41629286887996        1.20362543671005       -0.56204324727941
C           64.76890826277602        2.26405087655440       -1.24761835868948
C           65.73238643849174        3.12204719884595       -1.70296354761628
C           66.99723278287512        2.61385206015350       -1.29954907911359
N           66.75613635138606        1.44784757860118       -0.62425073128441
C           68.25679439710838        3.17635886619195       -1.54205568430823
C           69.48035568354834        2.61656261681863       -1.16853481254167
C           70.75928107028268        3.27993771651560       -1.34775773666392
C           71.69840695536404        2.42785797568741       -0.88738303631970
N           69.66250783153278        1.39930426694064       -0.58679212839907
C           70.99333356586811        1.24838955534556       -0.42683031680357
C           71.65297611040357        0.11488232515182        0.08929212515564
C           71.02549516346457       -1.02975757840164        0.61783885604405
C           71.66865920244139       -2.20068947993211        1.09524664643644
C           70.70419712586330       -3.05482252708818        1.55525996924223
C           69.44190063949071       -2.42736965463407        1.37381578857220
C           68.18424472562799       -2.94323261401491        1.71054963694187
C           68.17447007546843       -4.24880665597173        2.41240461867877
C           67.52621687018878       -5.35189824588209        1.85021397698019
C           67.52064954050607       -6.56797770737275        2.50814920268204
C           68.15871875501587       -6.70338720869990        3.74254046891181
C           68.12460428640813       -8.02729627122286        4.40983199725319
O           68.76058339182765       -8.04922014329268        5.59066614303743
O           67.58239277949887       -9.00288661831001        3.95691328413666
C           68.80546012529457       -5.60485091487200        4.30936649339623
C           68.81470962856140       -4.39011534209995        3.64652354673831
C           66.95841932685811       -2.33173946293101        1.44089586962728
C           65.67568630794790       -2.86596611732963        1.86278738434002
C           64.73675925368703       -2.01781825820531        1.39527500872291
C           65.44720345909134       -0.96246405162028        0.69991824248899
N           66.77928267020327       -1.16816673072113        0.75842633229257
N           69.68560363235405       -1.21337746117990        0.78958930475609
C           68.27584905868679        4.47165084334296       -2.26228057732484
C           67.62948219668981        5.59233481469907       -1.73360598323159
C           67.65003587621399        6.79579441407422       -2.41427999728718
C           68.31296267441556        6.90101484477289       -3.63844786612709
C           68.30468096887914        8.21206711528834       -4.33138284815897
O           68.97276933571840        8.20831489828431       -5.49443188836626
O           67.75695623662092        9.19921621576490       -3.91109741598479
C           68.95907708479155        5.78518849511032       -4.17137341011838
C           68.94110446666355        4.58307329661013       -3.48638046494964
H           63.70243397478427        2.34800808076068       -1.38054793127701
H           65.58135227962971        4.02127910416503       -2.27739690856359
H           67.47742076664875        0.84707361640416       -0.23944617882851
H           70.89698920978442        4.27006391634359       -1.75094259781930
H           72.76585777878140        2.56918649768345       -0.83833664672913
H           72.73280339524491       -2.36824585102027        1.07572856335283
H           70.85189983050743       -4.03833614919807        1.97034733660792
H           67.04157717894677       -5.25214814896095        0.88572576943474
H           67.02435823488928       -7.42948603643685        2.07502584993801
H           68.69265181371541       -8.94463604637364        5.96020254546222
H           69.29873517480131       -5.70419358292614        5.26901763561026
H           69.30583959123724       -3.53314786997607        4.09378964840104
H           65.53486733271465       -3.75883564900378        2.44990292170863
H           63.66622980454994       -2.07122838610541        1.51074389135553
H           68.96635252807994       -0.55102670561924        0.51913374148486
H           67.12722718822704        5.51805612857611       -0.77571622546489
H           67.15518520033496        7.67062932509399       -2.00692919033796
H           68.92254528050110        9.09753471969810       -5.88141344238698
H           69.47253912545727        5.86135780800114       -5.12251884142688
H           69.43198830747500        3.71252435519773       -3.90661435190394
C           75.68592641272562        0.09277921851252        0.05796695968209
C           76.31154637773739        0.99714638512360       -0.82157295306331
C           75.66752974203226        1.86533563459498       -1.74036014087395
C           76.63171733523804        2.59974557863032       -2.37461640556008
C           77.89462946388996        2.20536561771231       -1.85481750705695
N           77.65146369993717        1.22242420010620       -0.93340996164760
C           79.15237793247289        2.71101374327191       -2.20581707906595
C           80.37665471127258        2.24966178463225       -1.71667422824248
C           81.65698180447701        2.85628817432128       -2.03603810212604
C           82.59650499015866        2.11502104932102       -1.41355071449105
N           80.55691470467718        1.18209210449137       -0.89367847770540
C           81.88910810205019        1.06218006985387       -0.71147576166213
C           82.54469233764991        0.03802904985859       -0.00431885474529
C           81.91998548526013       -0.99821923003571        0.71274501367323
C           82.56548219636062       -2.05466722716795        1.40652852603090
C           81.60217939764830       -2.80069092446766        2.02887215126137
C           80.33995176636358       -2.21262300182690        1.74247673914317
C           79.08471278563285       -2.62275936129004        2.20891573986645
C           79.07035820220850       -3.76334740318879        3.15523855467711
C           78.37265133823793       -4.93314278684821        2.84163901371427
C           78.36053323239508       -5.99686637356642        3.72467639575516
C           79.04101030137117       -5.90986371881206        4.94077864929307
C           78.99629604394404       -7.07540127705404        5.85593638918297
O           79.68179491689827       -6.89055064520047        6.99429143389135
O           78.40802250292991       -8.10065616082433        5.62337776548738
C           79.73614410645908       -4.74319687018858        5.26053149485272
C           79.75165530921950       -3.68186764737515        4.37265485966713
C           77.86297343766807       -2.04052176288764        1.86529235968983
C           76.59117035635735       -2.42583966512698        2.44974003502709
C           75.65129681733316       -1.66362374241272        1.85326931370445
C           76.34908635891354       -0.81367115427128        0.90947286085418
N           77.67716155897527       -1.04449510800417        0.95618198451141
N           80.58091730268967       -1.14066917789353        0.92654066331583
C           79.16759844069448        3.82277631669839       -3.18564817889513
C           78.51138235973792        5.02533635427214       -2.90890806060445
C           78.52632207199696        6.05667431031275       -3.82973609152080
C           79.19253270982114        5.90373134373827       -5.04716132449554
C           79.17508159421484        7.03559751747979       -6.00448363351673
O           79.84596179835411        6.78873103880095       -7.13971005829936
O           78.61878158466169        8.08567290468815       -5.80624418938254
C           79.84851349916639        4.70496640265110       -5.32896881006893
C           79.83685416037383        3.67619789423689       -4.40378060639041
H           74.60302874862664        1.90856558009459       -1.90147337680925
H           76.48288604451474        3.34075616262610       -3.14281366309071
H           78.37112599540713        0.73067496442003       -0.41443251498148
H           81.79508510274199        3.73758201338629       -2.64112884204723
H           83.66644243586340        2.24780449664173       -1.41394985876984
H           83.63110295826679       -2.21696683233601        1.42304189990383
H           81.75107160544437       -3.68389284508830        2.62828173379347
H           77.85356231051331       -5.00689996073171        1.89283290489372
H           77.82582666825250       -6.90942276199438        3.48501349732413
H           79.60234617009689       -7.69323517279125        7.53486429299370
H           80.26131045874500       -4.66903416832621        6.20544218502151
H           80.27950243734793       -2.77007206538281        4.62878476208179
H           76.45874856652475       -3.16458655147413        3.22341035563910
H           74.58840024679229       -1.64812979100980        2.03138016187858
H           79.86182784788727       -0.53504582996975        0.54525946403549
H           78.00519461267106        5.15214789698634       -1.95862525518326
H           78.02390376001983        6.99434977522629       -3.61887557840427
H           79.78734571455756        7.57360581115354       -7.70834405278761
H           80.36422703658261        4.58058669736929       -6.27379298574487
H           80.33501921368602        2.73983801485768       -4.62828863770266
