138
 energy: -230.600396166804 gnorm: 0.000206869281 xtb: 6.5.1 (b24c23e)
Cu          16.31060147212994        0.02518332412246        0.00549901736857
C           12.90827884068230        0.09889742669012       -0.06844188475809
C           13.53383504568232        1.02244098440753        0.75625150165128
C           12.84991356181892        1.94830381696872        1.61222086648051
C           13.80244664733807        2.67236701155025        2.25186522558576
C           15.07734234287222        2.20554064945194        1.78011798113208
N           14.88293860718980        1.19804080055007        0.87968634914254
C           16.31822275324878        2.70136221181258        2.19223004587739
C           16.32823284260880        3.84454077079905        3.13491585981367
C           15.72579636783698        5.05934600072918        2.79621229403292
C           15.75186638055448        6.12949966008619        3.67052463182370
C           16.37289281882547        6.01310229248042        4.92023402258539
N           16.42192079936536        7.13091008155838        5.74010382944835
C           16.61244308249173        6.96635069550014        7.17476877125994
C           16.97730323847253        4.80051167826848        5.26412819711135
C           16.95292018543826        3.73637269323480        4.37894117498015
C           17.55435731768334        2.19813100304741        1.77871134697292
C           18.82791382942593        2.76053112005997        2.12838638673174
C           19.77889366700822        1.99526515694627        1.53447725091355
N           17.75006967488318        1.11151879193915        0.96747929943333
C           19.09395759374647        0.96691651818053        0.81164869123055
C           19.73585007401082       -0.03959846652572        0.06830582491583
C           19.08401603619795       -1.02573369185082       -0.69359944113334
C           19.75545628147229       -2.08346270848895       -1.38592886466969
C           18.79842498773013       -2.81626184414472       -2.01037329065711
C           17.53532028812707       -2.20302956706235       -1.71198270145901
N           17.74225260876586       -1.12061025453797       -0.89787737381756
C           16.29727700547818       -2.65685355887450       -2.17425324069531
C           16.29796025026117       -3.80433868137361       -3.11161392360404
C           16.98097505415763       -3.73126217580201       -4.32725213056254
C           16.99769664404723       -4.80088075499860       -5.20599079182129
C           16.32593068407428       -5.98376337981920       -4.88430322490824
N           16.36268741118685       -7.10813480509210       -5.69574626976178
C           16.62711088622959       -6.96273604977504       -7.12070487424948
C           15.64495256375400       -6.06481361838168       -3.66332582532671
C           15.62754353142199       -4.98929634440590       -2.79543987036875
C           15.06238873984815       -2.10628193926598       -1.81704777239967
C           13.79023263912340       -2.51834285598918       -2.34394868473529
C           12.84325626085348       -1.75032369786934       -1.74886206465792
C           13.52876548542523       -0.85277271697204       -0.86451185570969
N           14.87299378654039       -1.08791353752792       -0.92782049715360
H           11.82347328518771        0.12284534927848       -0.09280431993252
H           11.77790604098722        2.01599819760836        1.71256953857947
H           13.66052932631152        3.44572257902972        2.98971942163311
H           15.25296240119978        5.16948528231071        1.82634655289496
H           15.29229136027793        7.07124958854627        3.38926507949992
H           15.70199246670788        7.80901249697990        5.52156111234506
H           17.62110045221438        6.60481783675188        7.37873174262286
H           15.88516458625360        6.26567824558730        7.60077479623218
H           16.49054096476681        7.94229114523479        7.64471868268431
H           17.47073048837504        4.68104603794316        6.22086423688893
H           17.41170272823572        2.79576415098899        4.66417914095992
H           18.97313445852110        3.64048071724975        2.73384645658392
H           20.84999826765307        2.11484684398424        1.56941739375811
H           20.82174948905903       -2.24405815318900       -1.38022319991601
H           18.93230376860472       -3.70530304126627       -2.60505984238509
H           17.49262067428484       -2.81336344286309       -4.59606249504316
H           17.53776647920234       -4.70887323098428       -6.14030835548259
H           15.60395117189843       -7.75221159776299       -5.50769305661992
H           15.94916785017000       -6.23746063345268       -7.58513226597192
H           16.48886016519637       -7.93686984138284       -7.58985849546481
H           17.65782636122016       -6.64294819371712       -7.27877117177363
H           15.13185683003559       -6.98356627177148       -3.39906468059980
H           15.10766718401602       -5.07265386270864       -1.84721236950360
H           13.64703496710001       -3.28732967172236       -3.08610650483208
H           11.77482373373338       -1.77082444183022       -1.89679010984131
Cu          32.33442376410571       -0.01241392617308       -0.02169295352385
C           35.73674664613015        0.04532966408815       -0.11129286141631
C           35.11144902191582       -0.96129465470381       -0.83241271518258
C           35.79552424627238       -1.99764911533443       -1.55054518661038
C           34.84307846008323       -2.78006738918156       -2.11745348304096
C           33.56809748742034       -2.21918853784454       -1.76298011663144
N           33.76234028735227       -1.12095298506456       -0.97576853369894
C           32.32732930878111       -2.73067625176880       -2.15559266157998
C           32.31747594742779       -3.89965410014337       -3.06620979172219
C           32.91508502764802       -3.83135757310976       -4.32774777655087
C           32.88860729588790       -4.91735312183834       -5.18231574718076
C           32.27224299145180       -6.11352930106366       -4.79477168536024
N           32.22247127179973       -7.15690372371415       -5.70748358523329
C           32.03875030122724       -8.52207314698091       -5.23403444999364
C           31.67284557005989       -6.18737720741764       -3.53412441762099
C           31.69736420634289       -5.09201690984994       -2.68788120177682
C           31.09111278195095       -2.21873039193284       -1.75341654212980
C           29.81760433780638       -2.68464958554174       -2.22418802088184
C           28.86644814558048       -1.93817866508445       -1.60713588146347
N           30.89518817249699       -1.18923401944202       -0.87089783268307
C           29.55122670129820       -1.00670514460218       -0.76296216321554
C           28.90918121338611       -0.06121080143277        0.05642014205654
C           29.56090346352662        0.89791001016699        0.85216310345211
C           28.88935920316323        1.80376418762506        1.73382877266612
C           29.84624772883208        2.57326485988547        2.31268861676795
C           31.10933388234863        2.14929704647856        1.77847147245420
N           30.90256644343428        1.11869131752255        0.89963353343614
C           32.34723010067081        2.70049285218774        2.11946915154917
C           32.34654463936538        3.86589901543134        3.03434424773035
C           31.66002320118483        5.03474752376824        2.69941074046404
C           31.64350168655412        6.12599267108665        3.55114466677548
C           32.31936102925322        6.07222122927947        4.77354990690335
N           32.28341456689459        7.10985446826125        5.69334968290759
C           32.01324976844754        8.46772715977184        5.24079577360322
C           33.00400139887633        4.89999204942147        5.11742629982451
C           33.02085331130984        3.81793229127395        4.25772741264467
C           33.58213282536337        2.23253261129387        1.65923512239852
C           34.85405072246034        2.83787662693190        1.94488517903589
C           35.80116350086073        2.08959248659432        1.32537719854845
C           35.11595608429039        1.02971160153587        0.64370664812482
N           33.77176929342892        1.14209090979938        0.86006701103122
H           36.82152316859975        0.06464332503587       -0.14052924245024
H           36.86757935768937       -2.10948386659715       -1.59579803462536
H           34.98501519755695       -3.66813170489407       -2.71231057528210
H           33.38445129430533       -2.90737526577565       -4.64757730671634
H           33.34420086164820       -4.84618739938305       -6.16444439124743
H           32.93903719234057       -7.08863027803077       -6.41996415248585
H           31.03239080151020       -8.64592150505235       -4.83209797147144
H           32.77050089394695       -8.78301729960538       -4.46087575181671
H           32.15893648948532       -9.19262964782397       -6.08495288033787
H           31.18311753167260       -7.09663090632759       -3.20778594772027
H           31.24226878339568       -5.16710183461321       -1.70613008067718
H           29.67255841028103       -3.46887653174013       -2.94940195471500
H           27.79530559656455       -1.99964405890490       -1.71512732105337
H           27.82312411818423        1.83256642495680        1.89231287345861
H           29.71221666304637        3.34699107781943        3.05116619174618
H           31.14544064042857        5.09541464644344        1.74646533230599
H           31.10051736949085        7.01639425483987        3.25883033741099
H           33.04498433472806        7.06939469104326        6.35986385051984
H           32.68586012317212        8.76353302452705        4.42753134063901
H           32.15476084521691        9.13923469729974        6.08767537692055
H           30.98036605848642        8.54944009301127        4.90001385788181
H           33.52040093996086        4.84417928737404        6.07001699331740
H           33.54343730368387        2.91194478471863        4.54487872093389
H           34.99710563106715        3.73073990325357        2.53222349667597
H           36.86948196218775        2.23917332884075        1.31231722403970
C           24.93660563617786       -0.08123017589704        0.09808379555900
C           23.70840613530772       -0.07835331487221        0.09902994013919
C           22.36431563910417       -0.07062416831835        0.09408909872183
C           21.14058551594793       -0.05937955185100        0.08542888346959
C           26.28070521084242       -0.07907671302438        0.09055330063625
C           27.50443746822473       -0.07353447456074        0.07905864823831
