236
 energy: -425.987361470561 gnorm: 0.000963280928 xtb: 6.5.1 (b24c23e)
Co          54.61802944570356        0.04009156755440        0.04436257274610
C           51.25132338252447        0.03862225164977        0.16019349767233
C           51.90439724494590        1.24873192556224        0.05807864063805
C           51.24382484233961        2.51442184861368       -0.04234032553795
C           52.20145074204339        3.46349207926670        0.08339962468411
C           53.44402550278016        2.77498777451684        0.27908651220542
N           53.26022308306607        1.41966039039292        0.18592128842553
C           54.63315496647849        3.38989671146063        0.65273142563150
C           54.64109879303591        4.84378691326535        0.92375869502827
C           53.79598392774837        5.38880108560545        1.89377662203806
C           53.80677391676673        6.74690709547251        2.15542581136837
C           54.66420513587986        7.59123325596219        1.44369057339720
C           54.67642565998465        8.98982136489772        1.70918636206523
N           54.68617843313607       10.12042479838558        1.92313783334512
C           55.50995321920694        7.05161778501903        0.46996331087740
C           55.49805926142906        5.69172280911350        0.21749685678496
C           55.81233526019639        2.67198873079709        0.79350957769157
C           57.04910128429447        3.22749835865219        1.25481189882921
C           57.99649922656153        2.27564375983377        1.07322191151638
N           55.99191340736117        1.36506451640984        0.40331794087922
C           57.33611729205000        1.14219320924228        0.50749295268629
C           58.00531837577788        0.02755514927219       -0.00480531267500
C           57.31461722986938       -1.07500760437997       -0.51516080346891
C           57.94924463382542       -2.19888179970602       -1.12728202883986
C           56.98604308790180       -3.13266109553637       -1.31975455990249
C           55.76751013693712       -2.57967335523389       -0.80907760406359
N           55.97100003711915       -1.28580687012812       -0.38643100310853
C           54.59112086732543       -3.29515352256483       -0.63882178045260
C           54.57317802093521       -4.73974886074489       -0.95537587114354
C           53.67291483360854       -5.24564010912627       -1.89660653722450
C           53.65664265133508       -6.59433282757924       -2.20264729552086
C           54.54161587913766       -7.46865450857032       -1.56457167034974
C           54.52773701208771       -8.85734038077279       -1.87766036501315
N           54.51729819531258       -9.97893588534493       -2.13451847570926
C           55.44085121544062       -6.96868136555564       -0.61804657992692
C           55.45564964393579       -5.61778053309569       -0.32112156044913
C           53.42781264767743       -2.68942640669005       -0.17782974023626
C           52.20196813784591       -3.38403977072866        0.08824641029114
C           51.25879917294656       -2.43987119999222        0.31768542516122
C           51.91113017991690       -1.17122457513737        0.20045428527477
N           53.25336745628196       -1.33778165400279       -0.03444983939107
H           50.16860652497803        0.03800789251157        0.20234400975476
H           50.18237294060144        2.63991340835116       -0.18485064619197
H           52.08974890337350        4.53516260265198        0.05215396520851
H           53.14031753034416        4.73591370341597        2.45875933518020
H           53.15293483829251        7.16095403788228        2.91402294471103
H           56.17364533245185        7.70340909880095       -0.08602740769112
H           56.14637269701332        5.27921024896432       -0.54733018455415
H           57.16638641946496        4.21719683650119        1.66519328344505
H           59.05054708333441        2.32430027456724        1.29368300597987
H           58.99759179464509       -2.25264830012639       -1.37270363081883
H           57.08196425411898       -4.10944267180748       -1.76513651176641
H           52.99456704219943       -4.56896873903076       -2.40388879738438
H           52.96010234978147       -6.97780237983005       -2.93897722417312
H           56.12496232401507       -7.64413485404898       -0.11785028379829
H           56.14532747279245       -5.23675006661606        0.42357860766354
H           52.09101103073915       -4.45624626382927        0.09478309798445
H           50.21108559208053       -2.57023106198686        0.53684161110181
Co          87.07494667042326        0.01049235463673        0.10149767740611
C           90.44858337228250        0.02755802592142        0.29599552692859
C           89.80224068498127       -1.18872744212737        0.26113087795799
C           90.48099008371065       -2.44868737850848        0.26653336928402
C           89.52657872158508       -3.40280044382301        0.36579242312021
C           88.26678323231855       -2.72193527333740        0.44143774511955
N           88.44247580698395       -1.36715464307445        0.31431637415773
C           87.06116331626605       -3.35178836905831        0.71551110452197
C           87.05427192730174       -4.80530154801509        0.99811062823287
C           87.77704728442866       -5.31621454051402        2.07880757491356
C           87.76077645092901       -6.67035592881069        2.36030449840130
C           87.02167965626592       -7.54400739226966        1.55714681433178
C           87.00118246902790       -8.93813351111899        1.84472842991728
N           86.98276754743807      -10.06337605597965        2.08521104288771
C           86.30153545871977       -7.03840545853465        0.47081902705468
C           86.31715490385496       -5.68205782577246        0.19902631430703
C           85.86331872303444       -2.65450380856894        0.76447190676519
C           84.60904500837185       -3.24681281449488        1.12166587566175
C           83.66258859265028       -2.29544702466706        0.94180023223528
N           85.69228556934092       -1.33414265809861        0.41983750596573
C           84.34131269964008       -1.12513414228073        0.48131645460252
C           83.67909368253561        0.02624024178120        0.06224302960699
C           84.36046404561993        1.15789241273434       -0.38058189712295
C           83.70418343161141        2.30797546147453       -0.91780812958037
C           84.66866551908865        3.22670524540004       -1.16085481669868
C           85.90889472680963        2.64291949097769       -0.74498381684493
N           85.71345197469188        1.34844340580499       -0.32031538403802
C           87.10717524525711        3.33696978937604       -0.68065342583964
C           87.13296784345036        4.76885691529990       -1.05718674430092
C           87.93561258773447        5.20232844198653       -2.11500807216105
C           87.95804131498579        6.53580904096814       -2.48187012234717
C           87.17930815478933        7.46661533790346       -1.78773971291712
C           87.19966030394274        8.83978549190614       -2.16278617755095
N           87.21545833456457        9.94901589003798       -2.46871196748457
C           86.38037768050432        7.03896920448625       -0.72320716903097
C           86.35765690741012        5.70264739764409       -0.36613299157817
C           88.28401290392146        2.73263443256971       -0.26035623650720
C           89.52147330775513        3.43304697332945       -0.07626879436307
C           90.45732223750157        2.50205031903413        0.22133530256156
C           89.79110764614394        1.23516889893118        0.21584126247452
N           88.44858914849105        1.39182343964468       -0.02609886104061
H           91.52956792484612        0.03380462225898        0.37012520975377
H           91.55101282884326       -2.56568168437733        0.20233280494365
H           89.64922342646271       -4.47342084709823        0.38992791566762
H           88.33996969702382       -4.63977386656086        2.71198964964864
H           88.31762528960414       -7.05827964297583        3.20519889213498
H           85.73106933975225       -7.71355569115211       -0.15619594514246
H           85.76458082865182       -5.29487736255616       -0.64956020776194
H           84.48176123429575       -4.25931763540501        1.46833603239985
H           82.59783845582078       -2.36434883459625        1.09636932435056
H           82.64191768633076        2.38320695827952       -1.08597373532667
H           84.56088340244284        4.21385583463872       -1.57969003815917
H           88.53245600788490        4.48128485474893       -2.66204150213663
H           88.57690017263512        6.86348543248736       -3.30893514921890
H           85.77994597735527        7.75882648294046       -0.17939609408243
H           85.74579880626526        5.37696071667127        0.46748369848424
H           89.64159404336363        4.50080488679566       -0.16243355025618
H           91.50897029560652        2.63766417746224        0.41724494878647
C           59.40989823379755        0.02039647033948       -0.01667402769231
C           60.62741777281265        0.01697078041975       -0.02462066663428
C           70.21932380681366        0.01698357046753       -0.01080553409318
C           71.43695948811116        0.01999031141666       -0.00899222997888
C           81.05247185870032        0.04372389539675        0.05553129949345
C           82.26765402426776        0.03676717411155        0.06014788957477
Co          65.42397868470277        0.03304104559000       -0.06900858310002
C           62.03140276928367        0.01697961923567       -0.02975844969300
C           62.71341937423866       -1.19501066149260       -0.17154834503702
C           62.06655867180070       -2.46470104025960       -0.26804824442007
C           63.02229640654470       -3.36259206843744       -0.61179369685153
C           64.24781368520406       -2.63266100278429       -0.73244265302073
N           64.05794787304663       -1.31631049889679       -0.38322726925398
C           65.42398294121119       -3.15350134420762       -1.25676740897808
C           65.42144106773758       -4.52803588024964       -1.80160034418553
C           64.54040576382309       -4.88156907577075       -2.82680908745528
C           64.54220183590465       -6.16331933513713       -3.34666632112026
C           65.42583774339322       -7.12268342204132       -2.84338988844057
C           65.43095997307358       -8.44317788169847       -3.37562558102393
N           65.43663831198405       -9.50924651751800       -3.80854809444933
C           66.30560800588025       -6.77575233086653       -1.81369166844420
C           66.30288185919125       -5.49054704638244       -1.30264690626300
C           66.60254824744935       -2.41933752355475       -1.28679204635960
C           67.83037426252702       -2.87808602863263       -1.86225945609061
C           68.78715127637680       -1.98844222201541       -1.49938967146758
N           66.79447630534291       -1.21990671713153       -0.64217976178465
C           68.13756418817833       -0.98570092697759       -0.71716835459887
C           68.81551691436609        0.01481319994104       -0.01413159905049
C           68.13235707856413        1.01736816822968        0.68046839733807
C           68.77818399335042        2.02571915265562        1.45916631950481
C           67.82035257301133        2.91901282724095        1.80874082501489
C           66.59568822525797        2.45733365038216        1.22838424538802
N           66.78801013258094        1.24658716427284        0.60416110082384
C           65.42048146588368        3.19544703151624        1.18279519317424
C           65.41771803391772        4.57613784117119        1.71163726129279
C           64.52695668842058        4.94461833802897        2.72312557684837
C           64.52585804800813        6.23295487377942        3.22636474680202
C           65.41640353198515        7.18409350106585        2.71972178973977
C           65.41912419296867        8.51141516449339        3.23473436711664
N           65.42353929958077        9.58272045510351        3.65461568858417
C           66.30574484305988        6.82230120670176        1.70345307869907
C           66.30585362013736        5.53057599868209        1.20908438897767
C           64.24614892026699        2.67350639487646        0.65461036333231
C           63.02315636012761        3.40394067216062        0.51706084370878
C           62.06739811482928        2.50284791624388        0.17989891204030
C           62.71223018974214        1.23127773654600        0.10369344387498
N           64.05379619563728        1.35164958056801        0.33024358736402
H           61.01531529260961       -2.63164176359759       -0.09772816799996
H           62.91689586455870       -4.42318020028329       -0.77183421422831
H           63.86387524359820       -4.13661527857293       -3.23022795070824
H           63.86075219092209       -6.42762552585751       -4.14676022786905
H           66.98873353016270       -7.51806804905045       -1.41788150454948
H           66.97730543708650       -5.22951598598757       -0.49496430871982
H           67.93701429069320       -3.76505699158953       -2.46515590717657
H           69.83991737777129       -1.99919556553549       -1.73124684155103
H           69.82958820521100        2.03771337973614        1.69697840018234
H           67.92445557468270        3.81199745652416        2.40311456599615
H           63.84482258817422        4.20613778605030        3.12896299832342
H           63.83657144328686        6.50887185775240        4.01574464924333
H           66.99386802816879        7.55839867450187        1.30470668374459
H           66.98763235983569        5.25815372381505        0.41139936781803
H           62.91877485542904        4.46718817935245        0.65928024393958
H           61.01817831295078        2.67064730941651       -0.00142412194043
Co          76.24235182785186        0.04064529774045        0.00088619232808
C           72.84137323969351        0.02633647811748       -0.00924136815061
C           73.52498560963019       -1.17349768989273       -0.22007554862751
C           72.87016193907056       -2.43179962635275       -0.38973313832537
C           73.82953445258354       -3.32467733190453       -0.73293905692620
C           75.06548911558627       -2.60323247153155       -0.77838031546551
N           74.87336771667329       -1.29386177183860       -0.40219436334742
C           76.25941085049108       -3.13768413189303       -1.23919041028458
C           76.26470367449362       -4.51351579453773       -1.78463221648842
C           75.47088582618265       -4.83895484849636       -2.88704299718672
C           75.47671726327009       -6.12150735077938       -3.40502143237428
C           76.27589290862632       -7.10918994280599       -2.82172946620038
C           76.28287457269893       -8.43081396996846       -3.35112909393266
N           76.28935101957958       -9.49834596211594       -3.78055530748643
C           77.06837860280206       -6.78965320965053       -1.71524853621126
C           77.06300448351625       -5.50332223750118       -1.20656077510472
C           77.45026046579753       -2.42468142366684       -1.20171343181470
C           78.69745376817103       -2.92279138972920       -1.69827621756087
C           79.64879882873070       -2.03514329934787       -1.32116226976352
N           77.62614537297024       -1.20745758050939       -0.58839694237178
C           78.97653666019116       -0.99251065777971       -0.61257002411083
C           79.64185139293667        0.04436277887259        0.04000819437896
C           78.95919053658106        1.08374902664296        0.66949457272481
C           79.61245684360178        2.13561498554559        1.38208464638179
C           78.65224129109156        3.03075924623355        1.71691762751204
C           77.41857309684860        2.52531860283111        1.19474671253173
N           77.61000950458832        1.29950863194713        0.60439253748343
C           76.22524506615801        3.23563565742990        1.19775731377292
C           76.21877680323941        4.62151543258369        1.71707907380447
C           75.40814807107101        4.96719564592170        2.80094037628288
C           75.40217470884389        6.26045156032058        3.29165688772748
C           76.20643474550771        7.23851873509372        2.69922393097796
C           76.19987356806828        8.57145037267773        3.19948797608932
N           76.19213695290770        9.64883613853734        3.60355219976010
C           77.01731108809142        6.89817715480996        1.61242503686699
C           77.02370602227121        5.60136530317538        1.13119056954447
C           75.03958050040403        2.68672020803831        0.73318734113037
C           73.79747290426924        3.39644093928342        0.67211748854810
C           72.84644428028331        2.48881504111418        0.34479839900370
C           73.51313582986424        1.23423759126587        0.19501542646629
N           74.85989214089480        1.36977289938138        0.37644935029986
H           71.81210904707017       -2.59435192569873       -0.26226071060784
H           73.72205959686052       -4.37763644224810       -0.93608941614001
H           74.85926336772684       -4.07239405744565       -3.34928233236201
H           74.86361902881781       -6.36482614515760       -4.26483179508299
H           77.68578553946573       -7.55388933378991       -1.25796880333004
H           77.66972366239435       -5.26235852357764       -0.34102482614341
H           78.81848895241312       -3.83422691141546       -2.26048215036673
H           80.71187042430721       -2.06915690001750       -1.49695434379474
H           80.67017920513872        2.17076837754205        1.58756929304412
H           78.75857756258223        3.95102856266791        2.26763337973156
H           74.79255528102199        4.20839972411553        3.27066200991192
H           74.77565527568737        6.51970204631988        4.13702433536647
H           77.63947203796732        7.65463579510162        1.14869686840351
H           77.64494657009215        5.34380224786347        0.28086479579166
H           73.67968793360966        4.45170409506821        0.85669795240459
H           71.78720031883201        2.63980577901663        0.21306992626456
