236
 energy: -425.795255123148 gnorm: 0.000886729851 xtb: 6.5.1 (b24c23e)
Co          50.73667578975827        0.05110617844312       -0.43891502949384
C           47.68495343952804        0.27600943963452       -1.78393005603246
C           48.19880517930746       -0.98587581685664       -1.55866361802853
C           47.46564837646792       -2.19742206770669       -1.76527607711936
C           48.25255998277960       -3.20857692068878       -1.32504835712013
C           49.49752126777640       -2.62115319814309       -0.92283262001695
N           49.42912392278571       -1.25406169080672       -1.01967292804455
C           50.65390589258839       -3.33778244723959       -0.63893951976172
C           50.62454828662598       -4.81738950778172       -0.60207966342167
C           50.22016731929619       -5.56668935005825       -1.70713547688299
C           50.20665325672579       -6.95217459003213       -1.65594594253307
C           50.59735341014269       -7.60548668847692       -0.48947852780872
O           50.59463424008856       -8.96017767527293       -0.39526630956503
C           51.01162893800058       -6.86889834858619        0.61903521040648
C           51.02926298144138       -5.48737414391491        0.55587460883392
C           51.87954112683042       -2.69947327915273       -0.48878953377319
C           53.14340394501563       -3.36958389103138       -0.54111915456072
C           54.09947203220904       -2.40968989390620       -0.48361724412791
N           52.06559888147586       -1.34419102766355       -0.37683415582681
C           53.41910445652606       -1.16131382085636       -0.33943028722997
C           54.06006524625563        0.02939769907283        0.01921708612460
C           53.33434648894856        1.14114660276167        0.46312664344560
C           53.91674763704180        2.25602707446041        1.13954942211015
C           52.90084419723587        3.09751178424086        1.45176095279852
C           51.70552487266968        2.52093039657032        0.91185183430384
N           51.98465065378524        1.29854424118970        0.34533530121256
C           50.51295649205068        3.21590865254107        0.76987762328078
C           50.39505364298491        4.55500249129388        1.39414843305586
C           50.40741214846720        4.67752728833665        2.78548652705137
C           50.29690563820984        5.91791858846204        3.38822666230625
C           50.18306912734980        7.06133255183810        2.59942052680844
O           50.07870036992521        8.26353180973340        3.22270874525870
C           50.18354034421867        6.95522874145762        1.21065230025442
C           50.28745235003355        5.70713601962246        0.61560414577073
C           49.47971258785561        2.73100592587070       -0.02575640508429
C           48.32623348038781        3.48577316358724       -0.41927934496671
C           47.59249644291537        2.68898157162794       -1.23262276588853
C           48.26081091594151        1.42360643089285       -1.27914595045568
N           49.42814859515518        1.47084206964981       -0.55968459794102
H           46.72230172669367        0.35840718013191       -2.27513803674792
H           46.46426401709446       -2.24649831053725       -2.16282707932875
H           48.02451952078311       -4.26141535318425       -1.28744277292965
H           49.93778292377866       -5.06280587755670       -2.62471423096807
H           49.89760470479539       -7.53001800768704       -2.52045568298546
H           50.28674664866624       -9.36980020458076       -1.21491424750823
H           51.31602991843381       -7.39024940090465        1.51815762308451
H           51.34555602792103       -4.91250244320681        1.41911973652861
H           53.27155508852296       -4.43513214255256       -0.64233759503667
H           55.17109945675393       -2.52717840060685       -0.49747548099007
H           54.96733320567124        2.35966398674138        1.35843811178770
H           52.95094434223768        4.04655783275584        1.96047676108465
H           50.49016846088442        3.78620310226127        3.39733410136299
H           50.29765314832936        6.01609226949803        4.46677600395640
H           50.00139495562235        8.98541622899480        2.58461687684998
H           50.10599708742972        7.84901028888887        0.60082899948477
H           50.30822534782484        5.62940691104332       -0.46562750721869
H           48.11558883265693        4.49749455572789       -0.11285069187134
H           46.65885740116496        2.90638699781471       -1.72679303418787
Co          82.97914438021894       -0.01927810758725       -0.42033737332635
C           85.92390726356481        0.02835985935030       -1.96556202638752
C           85.36672286425217        1.23785725752437       -1.59941438985122
C           86.02528058050601        2.49860005328487       -1.75964100447872
C           85.30694514284896        3.40512825958637       -1.05322558823629
C           84.16398032503497        2.71558134974762       -0.53090221110830
N           84.22551010356344        1.38616390722721       -0.85409670313134
C           83.09854167341133        3.32171621974581        0.12910790666329
C           83.16846092121793        4.75507339707390        0.49511447218268
C           83.31944868330538        5.74600110510421       -0.47470341337522
C           83.37090961719576        7.08430291699341       -0.11591272551919
C           83.27447639541943        7.44510205096093        1.22592337192364
O           83.32396330837385        8.74279131702459        1.62132329161821
C           83.11653389452057        6.46444579730687        2.20395950361890
C           83.05775619096794        5.13247487259824        1.83585980786292
C           81.90622859633238        2.64329343009048        0.34504686545771
C           80.66901509389750        3.28683795075534        0.66969497791486
C           79.69175518152144        2.35955795040487        0.51143834046739
N           81.68576641388275        1.31566203681502        0.06397047040384
C           80.33794799975371        1.13645902171722        0.15651036515140
C           79.67716656777377       -0.09792724297597        0.06211840297636
C           80.39356534943833       -1.30079078103612        0.13367144175703
C           79.80093663060732       -2.56146156641849        0.44919642257063
C           80.82027463847805       -3.43322407107799        0.65096783889264
C           82.03342555153159       -2.71910648398658        0.38887869781113
N           81.75259569848934       -1.40851578070359        0.08892906118254
C           83.27948723513552       -3.32264725833884        0.27212802690977
C           83.42121542010219       -4.73119367557484        0.70522831009147
C           83.22941195388331       -5.06167945876213        2.04941289058594
C           83.35737271486501       -6.36875765972890        2.48317137529313
C           83.66799719346950       -7.37292592736560        1.56761590184436
O           83.78364409022197       -8.64554824213759        2.02578433453601
C           83.84491636769171       -7.06075124089416        0.22170734700107
C           83.72280031417363       -5.74651467781664       -0.20249700426345
C           84.34000237590013       -2.67076596640883       -0.35046439266487
C           85.55558901931036       -3.30159820260223       -0.77431683188664
C           86.22838669848163       -2.39539532498382       -1.52470263276088
C           85.46669196527371       -1.18446805796045       -1.48773147883619
N           84.31712399873707       -1.36452975734443       -0.76345885482966
H           86.84530072713302        0.04023409944111       -2.53637206531308
H           86.94410833054683        2.64508754562067       -2.30503979162846
H           85.52011623209766        4.45130491405446       -0.90533483510661
H           83.37094628105329        5.47048657938684       -1.52203882277430
H           83.48107368119339        7.85146782586898       -0.87484287230657
H           83.43092180503625        9.33816938337934        0.86738558830333
H           83.03969073703038        6.76009991362556        3.24294560873731
H           82.93908853179909        4.36770928012171        2.59521989738134
H           80.56657375141818        4.32565796393655        0.93850927697725
H           78.63010580352643        2.47376007208301        0.65817108221356
H           78.74117993169531       -2.73551544423331        0.54135903234394
H           80.76486888636502       -4.47781624850379        0.91130745551568
H           82.99278850319121       -4.27823128612051        2.76066288465162
H           83.21861329385489       -6.62657891601835        3.52584834865789
H           83.99903355639275       -9.25959241667349        1.31093428698533
H           84.07325516429542       -7.84748102088962       -0.48934874141073
H           83.83711090317807       -5.51112092439191       -1.25465304177291
H           85.84431156157821       -4.31271217343930       -0.53771596707600
H           87.17660458099701       -2.50786431703739       -2.02615424218034
C           55.46309034235860        0.06581212971871        0.04263555287787
C           56.68070629742383        0.08483914866186        0.02572978260518
C           66.26804204179481       -0.00237692529919       -0.14288776416618
C           67.48632678907474       -0.01822511609825       -0.15654265937384
C           77.06028185833522       -0.12802265462993       -0.05161946612938
C           78.27700519786600       -0.12197664319526        0.03016814704192
Co          61.47520463958038        0.06192050627696       -0.08839812541368
C           58.08404576628098        0.08849425405306       -0.00882203246436
C           58.79140265245905        0.99578944209690        0.78543322165847
C           58.17523035790777        1.91098518970913        1.69131667394309
C           59.14799752796513        2.75870992269045        2.10925035392494
C           60.35292126006688        2.36006395772639        1.44813271922162
N           60.13401748048502        1.23210795114244        0.69345002117729
C           61.53498381029539        3.09097116915085        1.45784282758852
C           61.56057006449752        4.40848555029201        2.12909403805511
C           62.47585361387392        4.66732636719545        3.15327875121834
C           62.50179005223203        5.89652176254846        3.78679287961704
C           61.61148643019904        6.89512885915649        3.39533850386039
O           61.66799850527579        8.09145698896700        4.03412174451204
C           60.69577069885296        6.65327251277373        2.37358339895726
C           60.67083220160462        5.41537500943451        1.75103703277031
C           62.69405259922200        2.61439328701742        0.86015981312563
C           63.92736871679430        3.33781404948697        0.79176790257296
C           64.86857531953260        2.46353048064974        0.35727551945768
N           62.86530921363582        1.33270384230936        0.39012158053940
C           64.20395845357430        1.21695803990804        0.14933698209212
C           64.86618135502079        0.01642470095740       -0.13008776579805
C           64.16449727567012       -1.16141564001323       -0.40819095078186
C           64.79016041086859       -2.42084350904043       -0.65621635784822
C           63.81771365535136       -3.25735963200943       -1.09643182710275
C           62.60346116239584       -2.50006247247431       -1.12174773578575
N           62.81898391448733       -1.23422163973753       -0.62855094197407
C           61.41495689784082       -2.93735561241215       -1.69154906361622
C           61.38912597179598       -4.24072224164191       -2.39002536202579
C           60.49649339325896       -5.23931481867105       -1.99705733083283
C           60.47259617996279       -6.46358346337878       -2.64595353211782
C           61.34141622489445       -6.69974819866761       -3.70911505682823
O           61.34818031336287       -7.88249001753686       -4.37521721612316
C           62.23508855520009       -5.70977779852486       -4.11455147376100
C           62.25856811669565       -4.49448021748553       -3.45451581777567
C           60.24811331576220       -2.18663029586726       -1.61700584235800
C           59.00627805390448       -2.55793616541012       -2.22380925147955
C           58.06546140885049       -1.71161578036016       -1.73585167419151
C           58.73890378338417       -0.82009888197230       -0.84687243530369
N           60.08156155957411       -1.07074121670834       -0.83099807292225
H           57.13144066483405        1.89889491198625        1.96064470826629
H           59.06597272398731        3.57968900163574        2.80283509516497
H           63.15866385624987        3.88619162029196        3.46820508969916
H           63.20413129322020        6.09666581283637        4.58648476930734
H           61.00588606587142        8.70636384975221        3.69066476513018
H           60.00813845726741        7.43494487671651        2.06894379453469
H           59.96717435843784        5.23361943363270        0.94631385938268
H           64.04871635514702        4.37842810490161        1.04507666251169
H           65.91964982624700        2.63447628417014        0.18948836850974
H           65.83913730155002       -2.62376372090933       -0.51233141395010
H           63.90544192604092       -4.29392861874070       -1.37868857801439
H           59.82958785227963       -5.06252814916814       -1.16057536438101
H           59.78297676856371       -7.23899454787833       -2.33002893742700
H           60.68854292343998       -8.49204685918809       -4.01771921748468
H           62.90118763990372       -5.90548529634401       -4.94574157722791
H           62.94423246560053       -3.71984968410479       -3.77918400151721
H           58.87936333076944       -3.36220370013957       -2.93006689198594
H           57.00930623283138       -1.68402088795360       -1.95026437541575
Co          72.27443249512049       -0.05374194896903       -0.22904919781091
C           68.88787892927708       -0.02792236501361       -0.18141668892461
C           69.58878785624812        1.02554796655184        0.41646927382299
C           68.96826717143703        2.10768745878699        1.11090062277351
C           69.93382007323845        3.03648236266875        1.32533969921277
C           71.13893619312947        2.51700468801162        0.75497600229459
N           70.92757895272631        1.24931915233508        0.26707385563339
C           72.31369696987227        3.24104156355821        0.58735017253148
C           72.33102182848975        4.67543226483402        0.94360328822672
C           73.26048515953410        5.16791106598934        1.86451796085836
C           73.27549675867577        6.50696152331483        2.20954684957708
C           72.35955011522069        7.38164668952458        1.62693152397822
O           72.40524980512858        8.68979864724894        1.98481239323270
C           71.42980442869992        6.90656874525803        0.70442873721503
C           71.41595722101377        5.56126828328539        0.37209744365635
C           73.47568035578206        2.64532584492832        0.11271826829656
C           74.70799904752103        3.33391358363826       -0.12145289260827
C           75.65717036262464        2.38206346283841       -0.30597854150634
N           73.65583171586486        1.28815115797164       -0.02464517453151
C           74.99851612104381        1.12016301829471       -0.20194778760547
C           75.66142729316952       -0.11287948444969       -0.13142261909154
C           74.95436257117926       -1.32085056918540       -0.15918331207156
C           75.56829315329132       -2.60862564897595       -0.10913331622410
C           74.60825715616049       -3.51122331310509       -0.43153232687040
C           73.41040636485050       -2.76816117771825       -0.67714925918229
N           73.62105560702834       -1.43152411134011       -0.43647038890107
C           72.24218340303715       -3.30341825199281       -1.20800301050987
C           72.23717211742948       -4.71337025418731       -1.65199595082281
C           71.31177395972350       -5.62098464921045       -1.13358834792456
C           71.30901200813760       -6.94381638635638       -1.54631660701860
C           72.23352768349554       -7.37412787101091       -2.49565104328835
O           72.26335748136134       -8.65916278570373       -2.93084072952469
C           73.16142915735938       -6.47776626072893       -3.02375600919008
C           73.16275905532919       -5.16167203422628       -2.59885937759948
C           71.07782834917224       -2.55300664976928       -1.31467074749669
C           69.84701681680255       -3.03167150953888       -1.86701011704853
C           68.89581438851323       -2.11748425400255       -1.55082131408128
C           69.55276763854586       -1.07668276623076       -0.82750258285155
N           70.89467876628005       -1.31302100138974       -0.74788287318042
H           67.92698421740793        2.14339316261384        1.38766146938298
H           69.84585744239772        3.98709110226069        1.82578599721975
H           73.96226770226761        4.48538678135240        2.33059694742310
H           73.98831652678670        6.88908265298717        2.92976716072987
H           71.72565661222450        9.20473616307742        1.52928955974288
H           70.72210636623795        7.59147043317162        0.24982957981930
H           70.70081399522346        5.19628353476252       -0.35666912128519
H           74.82431525783633        4.40532706025712       -0.13917174416564
H           76.70940673849729        2.51157839225623       -0.49983061891399
H           76.60474202817524       -2.78603157264237        0.12750878010755
H           74.69432656997083       -4.58372067748224       -0.49587614897409
H           70.60237381845302       -5.29248186048713       -0.38223498258408
H           70.59300556336477       -7.64614852207291       -1.13319899681496
H           71.57745302551368       -9.19183622767391       -2.50617470779676
H           73.87134169713994       -6.82513101489473       -3.76416197303162
H           73.87555463503685       -4.46175096411746       -3.02029973515203
H           69.73244674011491       -3.94881072949215       -2.42152921271317
H           67.84300861186834       -2.13485018857954       -1.78227576666043
