132
 energy: -251.162714407329 gnorm: 0.000728467280 xtb: 6.5.1 (b24c23e)
Co          13.22206292567340       -0.00107837780123        0.09833255549568
C            9.85762053846426       -0.03003599878108        0.26654421886840
C           10.49415349033796        1.18293267946449        0.11084736153165
C            9.81535706355509        2.43650234871194       -0.01849657659588
C           10.76502466451541        3.39989735249605        0.03024230831515
C           12.02199227911098        2.73392663758350        0.21305256978793
N           11.85145433702082        1.37288381354564        0.18279419015948
C           13.21280802164713        3.37699354307319        0.52250151665529
C           13.21726650404557        4.84637887494312        0.70547200132499
C           12.40606497202691        5.44517561903943        1.66525451585599
C           12.41755861792364        6.82874806375298        1.83708738213848
C           11.53291236127416        7.40677145497250        2.88016305283054
O           11.62378364701185        8.74069700717849        2.98048478453636
O           10.79585872038298        6.76113907967394        3.58047620798235
C           13.24257978355240        7.62537380435754        1.04331077169190
C           14.05063288900510        7.03159647664520        0.08648087385339
C           14.04196468440830        5.65430859183786       -0.08144342280709
C           14.40043408171557        2.67776196178436        0.68564860786895
C           15.63580931815943        3.26760998070245        1.10480593604646
C           16.58861864873948        2.31205900141691        0.97707374379298
N           14.58684329297546        1.35345884924799        0.36547978958774
C           15.93261102819439        1.14390015612144        0.48216213021958
C           16.60980648214370        0.01288800003192        0.01816758419306
C           15.92569873916943       -1.10901037029361       -0.45816456571984
C           16.57062698241494       -2.24974502822909       -1.02611079026668
C           15.61253760672402       -3.19294902938853       -1.19678774721609
C           14.38841630979320       -2.63037030976930       -0.71096623658018
N           14.58168554299151       -1.32125622802702       -0.33178395880068
C           13.21925513597975       -3.35049792427517       -0.51500426174163
C           13.21722142367629       -4.80789187151254       -0.77782613886044
C           14.10198850995159       -5.65065972820733       -0.10068276804073
C           14.10241864172750       -7.01712675760259       -0.34290125317805
C           13.22305186910328       -7.55912268130775       -1.26510955315669
C           12.33365831270162       -6.72771944490093       -1.94776479075709
C           11.40733396937690       -7.34760501650941       -2.92861324266892
O           10.58734652297089       -6.46864511128898       -3.52289435715786
O           11.37538953671677       -8.52462661791347       -3.18192897643744
C           12.33048326176621       -5.35621310575654       -1.70228006891081
C           12.05431148220024       -2.74470691364643       -0.06124701532084
C           10.83936143763186       -3.44448084619426        0.23843685441635
C            9.89247920456412       -2.50438450088903        0.46897701199575
C           10.53051068458059       -1.23231993482797        0.31522043701690
N           11.86836039526495       -1.39143163505800        0.05249962126228
H            8.77657349920248       -0.04009186439728        0.33907160068403
H            8.74801902958565        2.54460155631125       -0.12707093628703
H           10.63910957748943        4.46802324540276       -0.04100552743333
H           11.76968040718824        4.84082238091949        2.30237747678411
H           11.01995628649289        9.03920164166261        3.67997799734965
H           13.24825849296882        8.70032825222000        1.17696085051154
H           14.69275874330145        7.64484387139884       -0.53549649038861
H           14.66817300020339        5.19708896732191       -0.83931014185190
H           15.74796177956751        4.28106554350181        1.45426337112496
H           17.64483057041621        2.38038165194172        1.18236629251384
H           17.62233956128779       -2.30683264736229       -1.25606911705125
H           15.71572929411885       -4.18376687130427       -1.60833855319332
H           14.78166848473160       -5.23017643569262        0.63197873429749
H           14.79233418263430       -7.65894418875995        0.19307009751574
H           13.21070492941437       -8.62412948156654       -1.46752093576787
H           10.01871329159521       -6.94986009423062       -4.14571237767082
H           11.64841677830485       -4.71139274812384       -2.24380473340405
H           10.73753987017413       -4.51734091124684        0.26452147731572
H            8.85038904606902       -2.63992145651622        0.71081311117814
Co          31.73333774812910       -0.03381137238215        0.09305472719574
C           35.09800480160275       -0.05922740052066        0.25890757947071
C           34.46173333966941       -1.15600194088840       -0.28237788570725
C           35.14087895646702       -2.29868921883799       -0.81337585111329
C           34.19158876045346       -3.22602281499024       -1.08038359662119
C           32.93454860622777       -2.65672007927320       -0.68970449881662
N           33.10462263816289       -1.35995610725292       -0.27498569753051
C           31.74413524594810       -3.36610040438914       -0.60596952413102
C           31.73969695031990       -4.81473954601112       -0.91257957111311
C           32.55206604372150       -5.69401873905433       -0.20218777054616
C           32.53996713172993       -7.05789197054301       -0.49134281668671
C           33.42540471342863       -7.94515634709151        0.30500541336677
O           33.33466194550765       -9.23849880808491       -0.03640971035252
O           34.16231574925796       -7.56381185952015        1.17789280490994
C           31.71315837479282       -7.55182633015940       -1.50022240319919
C           30.90402556696099       -6.67825337653082       -2.20955429839598
C           30.91326811670838       -5.32160062933389       -1.91871350936824
C           30.55646099366322       -2.75866415500943       -0.22309966143101
C           29.32163604655323       -3.45372223228794       -0.01820631677791
C           28.36815058715614       -2.50932748192626        0.17212327777477
N           30.36916962342356       -1.40248304315134       -0.09448804169503
C           29.02320266275916       -1.24321901972755        0.08411248754639
C           28.34544876989006       -0.02316838755144        0.01379684770777
C           29.02905043153797        1.19316032387951       -0.07025616524744
C           28.38299511537532        2.45631773628451       -0.23404991874384
C           29.34034580966899        3.40431375892569       -0.08753179679130
C           30.56515579268352        2.71487934482212        0.18701686690923
N           30.37291268805026        1.35348012029890        0.11810823137634
C           31.73427928019978        3.33235906071649        0.60614129251815
C           31.73591126952179        4.79575722076103        0.83316960967324
C           30.85285372697876        5.37103939843587        1.75002210610632
C           30.85284423013096        6.74166977747179        1.96749634250971
C           31.73091579976056        7.55521562389439        1.27141426433011
C           32.61849901751032        6.99248118550019        0.35288954317102
C           33.54436217973713        7.89857755341688       -0.37265906421226
O           34.36395377897890        7.26162998801025       -1.22142845425585
O           33.57541469741214        9.09395853834045       -0.22891645173620
C           32.62117223639955        5.61604179516661        0.13681393886756
C           32.89988529761931        2.61238815907311        0.83625396414103
C           34.11502310240231        3.17718565393197        1.34621852306437
C           35.06257471759480        2.21407660704146        1.25639460946433
C           34.42473492084463        1.06111609814916        0.69720609311590
N           33.08639249956969        1.29607181959578        0.50244523457936
H           36.17914677914331       -0.07241799953670        0.32951751376531
H           36.20815628666539       -2.36492225148633       -0.95196704585726
H           34.31797677633246       -4.21259302194670       -1.49573603495815
H           33.18998838256094       -5.33076437204719        0.59621037603805
H           33.93857049070133       -9.74905329822922        0.52727760557572
H           31.70687053292876       -8.61155709447960       -1.72455886807737
H           30.26037705578796       -7.05493562308928       -2.99639603789874
H           30.28607261465791       -4.64212467532265       -2.48476853226138
H           29.21032829683717       -4.52583609828048       -0.01730806685025
H           27.31212625184428       -2.64161938222732        0.34446899161111
H           27.33103733891686        2.58445375652032       -0.43206942527527
H           29.23614457962972        4.47510282910241       -0.15247790363936
H           30.17418866455353        4.73426178971266        2.30632143664198
H           30.16449870295404        7.17314170067318        2.68517471464548
H           31.74380903458992        8.62786160051895        1.42831354372658
H           34.93199190776529        7.91984903949209       -1.65367908600299
H           33.30178091554148        5.18351293824347       -0.58693767119631
H           34.21637199429477        4.18299575695623        1.72058895500699
H           36.10499324654965        2.26420407019159        1.52785667937120
C           18.01165989244967        0.00999859257750        0.01442805014394
C           19.23663152826007        0.00554920584574        0.01213743061037
C           20.57799410079012        0.00178124746231        0.01043281632423
C           21.80931653336889       -0.00431482575539        0.00936479640710
C           23.14587173512569       -0.00853381671185        0.00844004146126
C           24.37728888243104       -0.01221165058776        0.00921508389924
C           25.71865130685878       -0.01637558060978        0.01035395949917
C           26.94360945804318       -0.01913361239260        0.01097142463702
