185
 energy: -337.106286350189 gnorm: 0.000704719458 xtb: 6.5.1 (b24c23e)
Ni          29.77065267570123       -0.07059909563880       -0.05497576059345
C           26.36627928678047       -0.05176271408351       -0.12012192592699
C           26.99959611710937        0.78571527018811        0.77346255737815
C           26.30230801298136        1.65300129643656        1.67293741634036
C           27.24688139740913        2.32320225313400        2.37465116312634
C           28.51559681736007        1.86431571933005        1.89795184831242
N           28.35973240085419        0.91844394390138        0.92314027130810
C           29.73381503690412        2.35641971129815        2.36773833244529
C           29.71866749333775        3.35326774209160        3.36805252411607
C           29.70338048798941        4.20989591387978        4.22707392291454
C           29.68623180061142        5.20913167437845        5.22733186093232
C           30.87196177122245        5.78295570193723        5.70045392285319
C           30.80041741348159        6.75769055083982        6.67970975103268
N           29.65215946047032        7.18211109856307        7.20106990249558
C           28.52056713028696        6.64129276355531        6.75672850791111
C           28.48277312775003        5.66148696501461        5.78065823118281
C           30.96514392801928        1.91151267807852        1.88633968866688
C           32.21561244760184        2.42353481571528        2.35000709747577
C           33.18281199390358        1.75328643892661        1.67765974332854
N           31.15575148672430        0.94024791223798        0.93687563759399
C           32.51620024262282        0.83498041664798        0.81049005723754
C           33.19548373641137       -0.05466996553977       -0.02446008232720
C           32.53901678846695       -0.95916190847355       -0.86230532283290
C           33.22893002449874       -1.88448615968934       -1.70349038654792
C           32.27962466897164       -2.58085462796679       -2.37473964451762
C           31.01664002100364       -2.07362675752569       -1.94083729617334
N           31.18191066134972       -1.08298202880030       -1.00667178954926
C           29.79850739513691       -2.53250132388788       -2.44242529449273
C           29.81109162005512       -3.54928088358019       -3.42255679425560
C           29.82261317167552       -4.42280648181928       -4.26446683470827
C           29.84016138954318       -5.43883165227805       -5.24770240397820
C           31.04525021256611       -5.98937218123395       -5.69920234081338
C           31.00939779640396       -6.98118036612523       -6.66310699983104
N           29.87806549514114       -7.44387655892964       -7.18887727178163
C           28.72825505306518       -6.92569841095145       -6.76482743410384
C           28.65475254921492       -5.93130275309750       -5.80565199739420
C           28.56856328843047       -2.02510591143655       -2.02220781894704
C           27.31386097365835       -2.47660028743283       -2.54110713452799
C           26.35134988366502       -1.77754013531201       -1.89403162292624
C           27.02373231144215       -0.90466755253329       -0.98106763344772
N           28.38678046085984       -1.05902817860086       -1.07203330988461
H           25.28268670576340       -0.04328615268702       -0.14319311804703
H           25.22863612695943        1.72482910472761        1.74275594469558
H           27.11614678334457        3.06583623995050        3.14531161930048
H           31.82893636005257        5.46668865323566        5.30330663885289
H           31.70455795094585        7.22032619313594        7.06486321165284
H           27.60205445944720        7.01052677898887        7.20378995558082
H           27.53835269543309        5.24820642595872        5.44771229657257
H           32.32274728598309        3.19585040066158        3.09446185191816
H           34.25317355158879        1.85694973252419        1.75271808611623
H           34.30133426074747       -1.97703198773956       -1.76158561556262
H           32.40673288698881       -3.36631583966696       -3.10209865266847
H           31.98946166811847       -5.64169414569473       -5.29778157693221
H           31.92927939706458       -7.42595862135253       -7.03164373322459
H           27.82441182909121       -7.32618768862973       -7.21487837239566
H           27.69642547034825       -5.53753741290620       -5.48923940801532
H           27.20407557164963       -3.23249738183263       -3.30208863675161
H           25.28053135324189       -1.83508763847236       -2.00740426243051
Ni          61.76333168345253       -0.12579769385062       -0.08625678329030
C           65.16563423712071       -0.23509293855861       -0.17491572174585
C           64.47524483095178       -1.39691455519575       -0.44779804320146
C           65.11297086668141       -2.63762809215645       -0.76629676562501
C           64.12375729302185       -3.53542355992569       -0.98824393434657
C           62.88775660871749       -2.83909379381101       -0.80201138837127
N           63.10726218736637       -1.53140335495738       -0.46874413901034
C           61.63876288209151       -3.44228775420694       -0.95289018297030
C           61.58492700460832       -4.80679905493492       -1.31330917568352
C           61.53595403945002       -5.97889083434329       -1.62278839576749
C           61.47034211165579       -7.34484392600530       -1.98229848167431
C           60.23984882923423       -7.98785784290260       -2.16054064596134
C           60.22755287578980       -9.32621334651039       -2.51077234220836
N           61.33526881214617      -10.04159642313575       -2.68874588852056
C           62.50889918754417       -9.43753473321703       -2.52129342133989
C           62.63055806848236       -8.10435026856467       -2.17178817183613
C           60.43972360445964       -2.75599620894861       -0.76008513508060
C           59.15797769065522       -3.36908091859393       -0.90759844163199
C           58.23688538851962       -2.41359445554108       -0.63335294946639
N           60.31356387922354       -1.43786241137254       -0.40218009660823
C           58.96259052461490       -1.22381566740853       -0.32090983032204
C           58.34151765009035       -0.02015201067957        0.02112705494755
C           59.05474641108577        1.14210795832900        0.32144352439536
C           58.42423075642524        2.37404066501308        0.67400315268123
C           59.41747318611791        3.27275805627302        0.88036235129388
C           60.64745602910985        2.58289125044328        0.65200360719470
N           60.41875136890742        1.27356830434573        0.31344400688447
C           61.89593972848102        3.19601051988220        0.75762385491068
C           61.95130709022704        4.56432501095833        1.10296986360348
C           62.00283494815739        5.74038485214968        1.39662054718002
C           62.06522988822869        7.11091797877519        1.73875882391662
C           60.90587324381367        7.84346151589854        2.01841669899948
C           61.02245586311522        9.18185848153467        2.34904608395803
N           62.19044908244256        9.81573292874627        2.41541975970665
C           63.29729276213670        9.12613050483281        2.15128046001565
C           63.28981405332653        7.78492459247576        1.81182602733511
C           63.09402758950679        2.51470289064767        0.53979917519124
C           64.37999946864898        3.13214833040581        0.65181635096904
C           65.29718175630624        2.16966192863374        0.39463042535323
C           64.56599867191758        0.96966034929880        0.12483325104878
N           63.21223325722487        1.19243631566627        0.21300235941308
H           66.24861903487491       -0.27029629802436       -0.20130408022297
H           66.18072363159875       -2.78155999388488       -0.81101101217553
H           64.20366937142217       -4.57713649236566       -1.25466897831196
H           59.31355097049396       -7.44261043960213       -2.02543359296435
H           59.28712876366919       -9.85012717794517       -2.65550072659622
H           63.39235265748108      -10.05069925305464       -2.67428244126718
H           63.60694994782643       -7.65239066223072       -2.04559066112237
H           58.99987661921566       -4.39889271567185       -1.18442388711381
H           57.16182158654762       -2.49205546999914       -0.63749445942991
H           57.35824110864467        2.51600184242292        0.74882962432330
H           59.34092039482320        4.31078053693203        1.16110605784738
H           59.93411973906441        7.36656804550370        1.97607162839989
H           60.13951004079350        9.77440179992472        2.57070110551771
H           64.23298392892599        9.67418421333910        2.21433222414341
H           64.21530066830010        7.26138433537102        1.60454392163824
H           64.54011774698816        4.16955827114178        0.89806449120439
H           66.37283592160625        2.24484482063184        0.38345036875815
C           38.39849907943927       -0.09202651812182       -0.04867025550316
C           37.17162506942763       -0.06428602065984       -0.02687433221005
C           35.82541136048668       -0.04715664788741       -0.01679189072910
C           34.60255503717448       -0.04632742005114       -0.01810573047012
C           39.74297133057956       -0.15141137235357       -0.08454045019640
C           40.96285683440156       -0.22315078777634       -0.13398450055976
C           54.36671667282972        0.02999666381022        0.07069758695350
C           53.13998843712967       -0.00494683561479        0.05102677419514
C           51.79645504217702       -0.07524348371985        0.00768590126023
C           50.57802209524218       -0.16185661525049       -0.05374153689275
C           55.71288259896961        0.03596841340695        0.07125739950096
C           56.93557973629734        0.01874277967307        0.05569956234806
Ni          45.77459893162737       -0.52913960500278       -0.33359185314081
C           42.36329414622611       -0.33059631230220       -0.20586142215245
C           43.03140830719948        0.30043063252553       -1.25880778753053
C           42.35758105174327        0.99174159893121       -2.31102316300340
C           43.30949256226919        1.36823123260159       -3.20032759326403
C           44.56103666456195        0.93162458755668       -2.66900423433851
N           44.38338753866097        0.27513340938776       -1.47868061159646
C           45.78892696557347        1.20654788023926       -3.27258759546797
C           45.79757841166058        1.86405138923916       -4.52219563624269
C           45.81170100304136        2.42204478925451       -5.59946489483447
C           45.82563983746676        3.07605947259844       -6.85297781126591
C           47.02855191607534        3.35323082227006       -7.51257158028356
C           46.98842861300599        3.99457313764876       -8.73782775201978
N           45.85506934047216        4.36616757367853       -9.32740623849464
C           44.70736005580113        4.10737933764245       -8.70607680975753
C           44.63805478940700        3.47083634291298       -7.47961738442935
C           47.01101048209537        0.92227602747709       -2.66160311373808
C           48.26873411890202        1.34812931994270       -3.18727093482421
C           49.21061673459269        0.98640673110968       -2.28143696118484
N           47.17593467635364        0.28183473790950       -1.46067103309163
C           48.52482998220033        0.31424780078822       -1.22460047018760
C           49.18050035742795       -0.28692697255736       -0.14650781337683
C           48.51438053118263       -1.08704748594508        0.78582188233257
C           49.18892913978889       -1.84498898802581        1.79060643429255
C           48.24177327844351       -2.58079253855647        2.42323778608704
C           46.99164854718874       -2.24243822936843        1.82151276243166
N           47.16588625105896       -1.32646381897410        0.81657445297306
C           45.76674455185682       -2.74600801197623        2.26155807437088
C           45.76363064204449       -3.72300401511180        3.28099605450666
C           45.76042430695207       -4.57219119924834        4.14755536591378
C           45.74813721412734       -5.56060618885021        5.15856073353647
C           44.54497284978594       -6.09641448212889        5.63246410565755
C           44.58552339368160       -7.06287854793167        6.62160595997915
N           45.71959868218214       -7.51383269326340        7.15162956242688
C           46.86751209325695       -7.00894433796233        6.70694472953281
C           46.93641586565738       -6.04009608390136        5.72159114414961
C           44.54231552972698       -2.27793703827271        1.78251129710733
C           43.28434803683107       -2.65485424303115        2.34375852496409
C           42.33792220460175       -1.93098443714746        1.69651486810955
C           43.02168579769884       -1.14155600848512        0.72269650479259
N           44.37365269591606       -1.35374199612119        0.78407098650308
H           41.29173058917946        1.14610498775154       -2.35787224380362
H           43.19166126036335        1.90573267957356       -4.12737982740128
H           47.97435434049908        3.06808554512690       -7.06801072185561
H           47.90637818205762        4.22091946706022       -9.27247055260633
H           43.80185766788306        4.42497815567572       -9.21494316533076
H           43.68154850706700        3.27982256365182       -7.00839953754074
H           48.39722160827056        1.87007418423113       -4.12173666704281
H           50.27698333512758        1.13958121664736       -2.31943086785699
H           50.25233175585356       -1.81975905404020        1.96560971784381
H           48.36155899707711       -3.28024959216027        3.23479396196552
H           43.59878273330486       -5.75747989962935        5.22821631927842
H           43.66739496283849       -7.49648012487855        7.00741995178329
H           47.77358730405714       -7.39934833122548        7.16130933915532
H           47.89324717853562       -5.65643634839304        5.38870596404925
H           43.15872368566826       -3.36913634137908        3.14138044058721
H           41.26995556886080       -1.93264539676314        1.84313523314120
