232
 energy: -419.916893642443 gnorm: 0.000589938240 xtb: 6.5.1 (b24c23e)
Ni          33.27604494024780       -0.02063644100278       -0.01877633629868
C           29.88157827637041       -0.05378767320621       -0.05491256807633
C           30.54002189384611       -1.26511874008283       -0.02410335135885
C           29.86622940421473       -2.52744681327403        0.00512036960940
C           30.82390413785625       -3.47557265333925        0.12711156665382
C           32.08347932648798       -2.79132847323046        0.16350878861583
N           31.89953031178755       -1.43553088827345        0.05606632611407
C           33.30088349923722       -3.42579704631917        0.37105412089791
C           33.31226191490018       -4.89873375331177        0.54140271229650
C           33.67828538011838       -5.48485931081681        1.75181860440599
C           33.67056468485668       -6.86667657624426        1.86170427205899
N           33.33278388503793       -7.67102798803337        0.85913700467847
C           32.98498986978766       -7.11947838393246       -0.29897879429409
C           32.95683853382779       -5.74899169339385       -0.50442551249067
C           34.50775715796220       -2.74252303129738        0.42245882271820
C           35.77426215537545       -3.38403636144694        0.60748775738454
C           36.72015342556373       -2.42120743065311        0.49763559236222
N           34.67741976304788       -1.39252302591617        0.21150792495639
C           36.03086113476227       -1.19689623659725        0.23994258241795
C           36.69002412767431        0.00803397117693       -0.01687107837405
C           36.01017656326661        1.20312673426808       -0.26483223191770
C           36.67631240702282        2.43497870165966       -0.54581138074173
C           35.71452910454816        3.38386931037295       -0.64054730490869
C           34.46301548165285        2.72806333102111       -0.41006216318295
N           34.65464521327583        1.37928761855639       -0.21262428153760
C           33.24321534311535        3.38970292510412       -0.37083249900397
C           33.23216605608491        4.86414191429648       -0.51600570310152
C           32.59087695635576        5.48198489698053       -1.58877479403819
C           32.61050501920524        6.86477385442749       -1.68157288961022
N           33.21189651372233        7.64224706438795       -0.78699273675946
C           33.82367861209435        7.06107569325366        0.23989317367055
C           33.86348719308865        5.68688381891474        0.41590048327669
C           32.03373895214395        2.72748806542608       -0.20645116285251
C           30.76373171373832        3.38917933982563       -0.13494833015701
C           29.82157186127714        2.42085516313429       -0.05659253324471
C           30.51703630001555        1.17013784957190       -0.06559265964219
N           31.87388725188977        1.36665236512631       -0.12870663621488
H           28.79789937623954       -0.06420256038718       -0.06218517654318
H           28.79621552337754       -2.64985158166782       -0.04890086821339
H           30.70172327441993       -4.54388223576325        0.20099635308329
H           33.95182771282743       -4.86749020708499        2.59910914099750
H           33.94774151550505       -7.34729647057133        2.79537924015021
H           32.71677099352900       -7.80297310521052       -1.09927008163435
H           32.67610264741529       -5.34316263161543       -1.46899503502649
H           35.91194604248609       -4.43835787899932        0.78284624671751
H           37.79140447505022       -2.51690282600902        0.57058506902570
H           37.74349690743096        2.54333858332569       -0.65282128466037
H           35.83077590943524        4.43393748417569       -0.85316635895909
H           32.09723010375415        4.88721293574647       -2.34804830700542
H           32.12220750492569        7.36900739478047       -2.51036216574268
H           34.30390586438958        7.72296336205763        0.95462533958674
H           34.36583004128651        5.25700849054564        1.27427426441264
H           30.62523944390745        4.45805278913383       -0.14146621636079
H           28.74989824171934        2.52340879774949        0.00539359970912
Ni          81.27629279392394        0.03708029665159       -0.01835824883138
C           84.67284336949858        0.05024058499862       -0.05830319995083
C           84.01828701762111        1.22386928542135       -0.36744764276696
C           84.69746295887846        2.44189300255251       -0.68903226560104
C           83.74227209383632        3.38465082656574       -0.86103218591327
C           82.47923151342215        2.73872511433684       -0.65245046775364
N           82.65857119863270        1.41023514678572       -0.35812671141127
C           81.26056918124523        3.40327176672215       -0.67559945453885
C           81.25295936744124        4.85977016255231       -0.95368973290426
C           80.85825507738872        5.77893219862285        0.01695828407891
C           80.87097253402300        7.13076668744988       -0.28930786178982
N           81.23960832902833        7.60084846410007       -1.47650687480545
C           81.61463746494378        6.73027593814708       -2.40807497046607
C           81.64069139019308        5.36083763848855       -2.19527560765165
C           80.04894385234304        2.76484481597815       -0.45173831420282
C           78.78267850359393        3.43069122948703       -0.50550143470553
C           77.83406950628269        2.48203735909240       -0.32148806147043
N           79.87641592162423        1.41675795862313       -0.23082576540518
C           78.52184174701658        1.24037301467184       -0.16162331170622
C           77.85989104442785        0.01994089737543       -0.00445936258761
C           78.53628805585755       -1.19210104346563        0.15609240223830
C           77.86391766037389       -2.44444554726027        0.29611378398349
C           78.82343565281381       -3.38169003171140        0.48305170228796
C           80.07992552216747       -2.69592148360621        0.46446920014887
N           79.89243280684566       -1.35112047382513        0.23626589424270
C           81.30109897368469       -3.32528703914218        0.66247457300287
C           81.31062961833575       -4.77694420164292        0.95999553891540
C           81.91373673396153       -5.68930112447492        0.09532756498019
C           81.89669917021864       -7.03734406471345        0.41723652767480
N           81.33251482840369       -7.51067000609520        1.52360952464082
C           80.75682003106400       -6.64714413220263        2.35394568907931
C           80.71798739301894       -5.28218610950314        2.11641011822048
C           82.51449185543666       -2.65391210335620        0.59109447407447
C           83.78494182153410       -3.27636517500441        0.82414841627384
C           84.72896652184752       -2.32955458389902        0.61560479116663
C           84.03442170830009       -1.12776855086804        0.26750608604826
N           82.67663847387499       -1.32798167693275        0.27644903110213
H           85.75656860452338        0.05574219757009       -0.06539576649882
H           85.76875776628627        2.54362433231810       -0.75847300354706
H           83.86790121464512        4.42901819790913       -1.09599593653790
H           80.55866711008379        5.44103786453646        1.00183636619240
H           80.57199980592482        7.86693522982272        0.45113981293600
H           81.90759452685170        7.14512442633385       -3.36811707229895
H           81.94467692717113        4.68694645304514       -2.98734289944163
H           78.64750706785148        4.48604214953264       -0.67657610804169
H           76.76221849405373        2.59511745446509       -0.30166964969082
H           76.79455936538389       -2.57343056034323        0.25273043665251
H           78.70233838094087       -4.44438072757022        0.61479752412885
H           82.37643686804000       -5.34957376354831       -0.82361515626352
H           82.35620813084822       -7.76782049974969       -0.24221458107595
H           80.30639626875934       -7.06422864971497        3.24989819138180
H           80.24644607949881       -4.61380627892177        2.82695680860141
H           83.92245667022902       -4.30511061259709        1.11467802631994
H           85.80134614166791       -2.41588795533869        0.68889131367705
C           41.89178955437337        0.03720742485360       -0.03602496631032
C           40.66416807293505        0.03266180594826       -0.03182167566367
C           39.31880414962718        0.02693465552670       -0.02789777568623
C           38.09571721021977        0.01816082697908       -0.02419130655760
C           43.23701318587612        0.03781671431438       -0.03960202643303
C           44.46028186883834        0.03660215120184       -0.04254987977703
C           57.89178816617402        0.03244920492810       -0.00790823089498
C           56.66385702597584        0.03142485477969       -0.01168937761824
C           55.31959066277639        0.02845168861549       -0.01751840891736
C           54.09616471890533        0.02500616667321       -0.02349287934776
C           59.23604191158821        0.03176128935691       -0.00613076801454
C           60.45949764260856        0.02849832493787       -0.00529240062029
C           73.88609216782987       -0.00221981953001       -0.01430108191857
C           72.65828076390278       -0.00973214510512       -0.01732955554749
C           71.31334583218826       -0.01269524462290       -0.01828345224624
C           70.08990900445950       -0.01298255954251       -0.01840673722785
C           75.23117260015735        0.00512141008863       -0.01101492207518
C           76.45445205985146        0.01076772435841       -0.00840025337358
Ni          49.27872826832338        0.01861164871696       -0.04630846519448
C           45.86511719122439        0.03120932784030       -0.04461877125696
C           46.53550817112190       -0.72069509359687        0.92457417709890
C           45.86521034011713       -1.45743623446169        1.94773051701636
C           46.81804753000838       -2.15568471448876        2.61173330609682
C           48.06696808486126       -1.84892136216246        1.98419148953627
N           47.88615685448622       -0.93079160218687        0.97499363703798
C           49.27156396305836       -2.45465538331867        2.31715708510477
C           49.26821345220817       -3.52642296471035        3.33915735543130
C           48.54445907043409       -4.70334089958767        3.15155226301520
C           48.57606771978681       -5.67948321643140        4.13496682143877
N           49.26430836689270       -5.54779177320233        5.26432221881512
C           49.95415193169802       -4.42746467695135        5.45243451540134
C           49.98954706281687       -3.39768080926730        4.52547330974850
C           50.47966869693356       -2.09648541113857        1.73403944985990
C           51.72711758709712       -2.73702061228423        2.01963748878571
C           52.68446466750263       -2.03816353534933        1.36285631483547
N           50.66627565408183       -1.04436056251227        0.86629759071315
C           52.01796915994770       -0.98206241986342        0.67043492202295
C           52.69236448990186        0.02155193067918       -0.03133904246269
C           52.02163770616065        1.02016464429286       -0.74367995601631
C           52.69250485345518        2.07149326654639       -1.43926736346228
C           51.74030070359811        2.76076417143401       -2.11336625653454
C           50.49138933970029        2.12115754180491       -1.83244246999867
N           50.67172052838580        1.07744453678478       -0.95330225910201
C           49.28731220431813        2.47579681847423       -2.42580460929884
C           49.29283144517286        3.53649614459585       -3.45948906355669
C           50.01293202506297        3.38758560656426       -4.64413593412834
C           49.98572836668875        4.40642408712573       -5.58339762876995
N           49.30569801622310        5.53482721355013       -5.40821864158043
C           48.61964520400320        5.68613791630793       -4.28000348457281
C           48.57977647083725        4.72187459424910       -3.28518196763376
C           48.07894452603286        1.87973671503154       -2.08970584940762
C           46.83174358862270        2.19164260643124       -2.71805859090667
C           45.87387019927172        1.50870878371382       -2.04537928614347
C           46.53967021927450        0.77424372269745       -1.01770257432628
N           47.89193308391854        0.97186826502447       -1.07227089865149
H           44.80156533500519       -1.43542835641232        2.12166691515552
H           46.69642288922839       -2.81797412533057        3.45315116789356
H           47.97802442325789       -4.85868632966588        2.24108802626955
H           48.02475744535177       -6.60677710975393        4.00964180134789
H           50.50402939030600       -4.34862245703990        6.38569160120010
H           50.55740282972938       -2.49703030804945        4.72627541649700
H           51.84510014148722       -3.60950511630149        2.64113217788598
H           53.74861747507887       -2.20895368232251        1.34074699627718
H           53.75604935673619        2.24470304783854       -1.40857500196489
H           51.86229332200629        3.62669511119858       -2.74319693702852
H           50.57347870475903        2.47998623811576       -4.83383397666547
H           50.53395255428133        4.31162203462331       -6.51612757762113
H           48.07709756136870        6.61992760788916       -4.16515107074799
H           48.01527611838706        4.89292692415850       -2.37634249806041
H           46.71470842137588        2.84750726357964       -3.56514428204101
H           44.80968580009201        1.49476820129233       -2.21684023300773
Ni          65.27439535673913       -0.00150602043824       -0.02105364109722
C           61.86315616203704        0.02038138960476       -0.00912210267459
C           62.53503050970408       -0.72238763100045        0.96658551370823
C           61.86839981546972       -1.44478091388730        2.00236302736877
C           62.82107147452884       -2.15002018119380        2.65951049854824
C           64.06588913176040       -1.86229424909327        2.01483917805984
N           63.88346561148995       -0.94514943493458        1.00485702954426
C           65.26637384687551       -2.48815184874691        2.32437301378705
C           65.26347352801547       -3.56417955124190        3.34147372077190
C           64.50763035472588       -4.72307515999196        3.16822682267055
C           64.53911070132528       -5.70271801277913        4.14820694924455
N           65.25671138163753       -5.59096149358724        5.26126640218258
C           65.97760433427933       -4.48797316801720        5.43563488598043
C           66.01568532964427       -3.45655033765922        4.51069948428579
C           66.46972093635178       -2.14432970011093        1.72163068859094
C           67.71222069630690       -2.80648589971685        1.97743423680107
C           68.66994638849951       -2.10824149741080        1.32000324723040
N           66.65838835967530       -1.08134803920301        0.86793131562497
C           68.00879463412770       -1.03038515972661        0.65681484779951
C           68.68558064364406       -0.01114246332041       -0.02018619431768
C           68.01510725235505        1.00906930808801       -0.70211341387647
C           68.68287378249599        2.07776987725078       -1.37348397918817
C           67.73016907002189        2.77334622486531       -2.04105042601337
C           66.48384751263968        2.12062383274035       -1.78028659191938
N           66.66544580474138        1.06473949542088       -0.91655456562871
C           65.28217686567072        2.46869521013577       -2.38369692037267
C           65.28654346320364        3.53391637172075       -3.41227603076402
C           66.02661592923047        3.40188297424467       -4.58664705575829
C           65.99422895295110        4.42271537222990       -5.52350986089804
N           65.29075556833092        5.53782190109881       -5.35548245899708
C           64.58583508117857        5.67329801722836       -4.23693848575124
C           64.54943808880599        4.70565732745585       -3.24528180707470
C           64.07640308591823        1.85970349618833       -2.06207614261882
C           62.83081006648953        2.15997213451452       -2.69947024424966
C           61.87316724467545        1.47543518210979       -2.02788493716747
C           62.53769497116537        0.75120060735975       -0.99204334500417
N           63.88880591380755        0.95387136383585       -1.04268476126390
H           60.80706959442619       -1.40948387105012        2.18800043310512
H           62.70132719107779       -2.80588846871606        3.50624152920322
H           63.91622663144344       -4.86241790686127        2.27114389264969
H           63.96277455151134       -6.61614313618041        4.03370915834723
H           66.55082897581278       -4.42502909540678        6.35593273810012
H           66.60903101307889       -2.57002726394228        4.70043071433044
H           67.82679224557947       -3.69170651018194        2.58134042811818
H           69.73142541600028       -2.29230049273414        1.28113619297899
H           69.74506820612224        2.25752198173706       -1.33422560777374
H           67.85042562417567        3.65121244897437       -2.65453979425221
H           66.60583387919873        2.50493567954826       -4.77086180618928
H           66.55720114205236        4.34057525907204       -6.44861614056948
H           64.02424766910667        6.59644576837792       -4.12767123829558
H           63.96866027507672        4.86373367885280       -2.34436959766940
H           62.71407985786706        2.81011258211611       -3.55100636874920
H           60.80993070787146        1.45455959845081       -2.20454295503640
