126
 energy: -214.863770515662 gnorm: 0.000497868461 xtb: 6.5.1 (b24c23e)
Fe          14.11641917958389        0.02423670354258       -0.03774844998584
C           10.73401873283348        0.11366665521418        0.08226019076250
C           11.38421085801322        1.13131779075242       -0.58562363513666
C           10.71119464749345        2.19047817141690       -1.27387753264285
C           11.66993238951084        3.04953417413902       -1.69517574616395
C           12.92660501607179        2.51930394011544       -1.25187300531032
N           12.74079315410954        1.32524575768074       -0.61025734060272
C           14.14663993682434        3.17198720309847       -1.40817193698333
C           14.15644016631922        4.52627206957847       -2.00338990120859
C           14.88011209841249        4.78983512015464       -3.16946133819031
C           14.89078505005684        6.05579812328756       -3.72670834452621
C           14.18830450886430        7.09754843083551       -3.11468924580747
N           14.16844750615726        8.35650286813699       -3.68745664453891
C           13.45801807276468        6.84117681043494       -1.95097892010815
C           13.44218369989102        5.56936740555006       -1.40760669081733
C           15.35388393425454        2.60223885619705       -1.02393027642147
C           16.62009317482089        3.26496487083126       -1.12237531421264
C           17.56360523845786        2.36262949245341       -0.75862872936643
N           15.52276942323574        1.32324756952165       -0.54899089979517
C           16.87053966226545        1.15815205694467       -0.42630313978439
C           17.52263199552078       -0.03437816846754       -0.08875523018653
C           16.83705985696869       -1.20015433708503        0.27521522402672
C           17.49108057438892       -2.43804608444111        0.55944457563089
C           16.52815518570043       -3.30028879482417        0.96782474134798
C           15.29060592471027       -2.57934843964461        0.94568308318806
N           15.49306359208613       -1.30222904055541        0.47977010623675
C           14.08064422556742       -3.09594356455238        1.39234913306700
C           14.05905930372212       -4.45435548179709        1.97736488529500
C           14.83637434001673       -4.76321525680592        3.09691840858344
C           14.81716126376024       -6.03284375376444        3.64551483731187
C           14.02898644204060       -7.03359833264382        3.07063585600406
N           13.97971566035909       -8.29450454335081        3.63706095517364
C           13.24569216348406       -6.73204551749656        1.95309220744754
C           13.26098268854152       -5.45651173068731        1.41861971459798
C           12.88533164180294       -2.38728783375126        1.30352433904085
C           11.63015386478021       -2.86433550440969        1.80779583427309
C           10.69012025338244       -1.96295501345490        1.43615647755587
C           11.37362819631858       -0.93093707695430        0.71760319613618
N           12.72163649815582       -1.17788505212834        0.68423542626569
H            9.65023718865156        0.13543100223653        0.10839784331967
H            9.64289925308373        2.25126206251463       -1.40915978597585
H           11.54932446234092        3.95870712702355       -2.26164400186450
H           15.42067904863074        3.98476262120795       -3.65508031810666
H           15.44541184702345        6.24505231168064       -4.63929477982161
H           14.94470397312223        8.56200430850972       -4.29577155542889
H           13.93200234260987        9.10800510495296       -3.05947124680655
H           12.90817701808366        7.64491701657045       -1.47358917460291
H           12.88867866957708        5.38264981224711       -0.49383953024846
H           16.76049032432108        4.28968389901880       -1.42553173744941
H           18.63355323825092        2.48768157855446       -0.71412979725505
H           18.54973630623229       -2.61177371587949        0.45194017896222
H           16.63688648608995       -4.33450727695270        1.25124082762203
H           15.44368052689113       -3.98983264051593        3.55426370681060
H           15.41466204261436       -6.25681989703710        4.52246301910343
H           14.77626335566450       -8.54106188408637        4.20244075479165
H           13.67327047626525       -9.02917564277755        3.01966793525588
H           12.62982946642602       -7.50382582837404        1.50439730764593
H           12.66511665710681       -5.23553580839088        0.53981422867849
H           11.49790696182808       -3.76975416231532        2.37759204069702
H            9.62776058397422       -1.97900090862022        1.62158558731794
Fe          30.09260217893596       -0.04525593715439       -0.00022857133947
C           33.47485384387878        0.00490358963837        0.13959417987406
C           32.82471150827518       -1.11437409448709        0.61810283714911
C           33.49764306117706       -2.27377111230333        1.11945586139208
C           32.53895990886686       -3.09943552297019        1.60307824965700
C           31.28243465205556       -2.43623236155228        1.40769488167928
N           31.46821586686577       -1.24146787925259        0.76739041364191
C           30.06259933323856       -2.92649644130786        1.86657455421871
C           30.05276726018317       -4.17099651728488        2.66630705704710
C           29.32776994113144       -5.28788606434664        2.24220966277571
C           29.31681575603792       -6.45190730528224        2.98934468755823
C           30.02024654271749       -6.51809816271575        4.19519439107438
N           30.03956668453049       -7.69121909345743        4.92799052533068
C           30.75198193939970       -5.40724144577060        4.62389008753373
C           30.76815862153217       -4.25155600691065        3.86416780358422
C           28.85547820491076       -2.29075397995553        1.60505971111467
C           27.58939646279962       -2.73815979458889        2.10411549036064
C           26.64584961679277       -1.93655374578392        1.55285156366496
N           28.68652972320486       -1.18851821900725        0.80102903649297
C           27.33880639968883       -0.99480206612418        0.73157184195834
C           26.68660397900694       -0.05538594180040       -0.07681638682093
C           27.37203995376852        0.89160528998718       -0.84809329365476
C           26.71808775919473        1.81162686449146       -1.72375395030440
C           27.68093823562603        2.62847237532258       -2.21688761059039
C           28.91841519566021        2.21245626110556       -1.62752209049826
N           28.71598320145585        1.11891562027233       -0.81987905449109
C           30.12823097162590        2.87066424340323       -1.81082019816562
C           30.15000397435023        4.10872797748198       -2.61992484214625
C           29.37112686203887        5.21191625731137       -2.26021546643765
C           29.39100124864770        6.37079848482344       -3.01512304588248
C           30.18146374981389        6.44538452091749       -4.16523565453679
N           30.23158011437467        7.61458532071039       -4.90283192032031
C           30.96622775305678        5.34792806208153       -4.53000556931410
C           30.95019918630020        4.19751291461348       -3.76241481446666
C           31.32341029364490        2.40552668495371       -1.26847225261238
C           32.57849721479619        3.08973959405815       -1.38666645400296
C           33.51853033290433        2.28184522482158       -0.84084932199723
C           32.83515546197709        1.11219728076971       -0.37875314950549
N           31.48713322218417        1.22094596711793       -0.60292834179557
H           34.55864218935655        0.01459347366220        0.17190121365434
H           34.56583268907858       -2.42064304579203        1.09422239854908
H           32.65947466806822       -4.07426178017627        2.04720202724601
H           28.78633659946096       -5.24723808765801        1.30338996813899
H           28.76112374101160       -7.31659784625986        2.64327014994417
H           29.26271908281579       -8.31102917740620        4.76318208011124
H           30.27576431749791       -7.58299344243686        5.90141271692005
H           31.30274582495680       -5.45402504821519        5.55700842973785
H           31.32278412970610       -3.38732075075851        4.21300158210369
H           27.44910222172285       -3.55649415929151        2.79136587289368
H           25.57596005678715       -1.96807920814083        1.68226421183033
H           25.65949433468007        1.81762376417630       -1.92829735110106
H           27.57218185876316        3.43562339298904       -2.92289056444788
H           28.76220092703826        5.16531940572955       -1.36403637448460
H           28.79231354202438        7.22501563936347       -2.71832066050830
H           29.43374088935004        8.22066471775814       -4.79781594796623
H           30.53933039647278        7.50565792539621       -5.85589528345065
H           31.58387946048896        5.40094997457923       -5.41992608499896
H           31.54719532589087        3.34341202541007       -4.06290085334812
H           32.71075159757140        4.06521248519540       -1.82586069120311
H           34.58083542271118        2.44542659776405       -0.75138548375409
C           22.71967303898856       -0.07453088879083       -0.14012987585011
C           21.48954933208794       -0.07549432169776       -0.13804847460091
C           20.14820499656241       -0.06939395085951       -0.12972814477212
C           18.92274435100979       -0.05974836558667       -0.11434411195689
C           24.06103888724336       -0.07112163343492       -0.12971093600781
C           25.28650955200055       -0.06365515994844       -0.11256103276471
