444
 energy: -780.582486093855 gnorm: 0.000739471434 xtb: 6.5.1 (b24c23e)
C           85.95444494446605        0.07998567417693        0.02416712701597
C           86.56271594453879        1.32734292450974       -0.02953882010402
C           85.91070142174156        2.59246123912636       -0.03827261464005
C           86.87153494726155        3.56101574377627       -0.11185285716273
C           88.14167179870542        2.91806527531967       -0.16107216499135
N           87.90487367201790        1.57455740329590       -0.09767580438246
C           89.40419940766041        3.51741234816411       -0.23779153163551
C           89.43500855914550        4.99693438291663       -0.32347711379627
C           90.07780263867123        5.74894422294363        0.66294963277214
C           90.10656396180801        7.12987842893224        0.59006971343604
C           89.49335417551970        7.78823943088972       -0.48010093999786
C           89.52314746374581        9.20918715330371       -0.56007595281018
N           89.54640046424915       10.35791087335000       -0.62435483895612
C           88.85062868550595        7.04050698465370       -1.47117833202524
C           88.82108424022098        5.65990014054219       -1.38880272464277
C           90.62047342096365        2.82951202942858       -0.23854870543346
C           91.91497504213650        3.47095923745429       -0.38551348934814
C           92.83688988068528        2.48764838697439       -0.33175047193120
N           90.77698834883158        1.48240004007814       -0.12249195663341
C           92.10422882679971        1.24765588694844       -0.16247167326450
C           92.74349062742770       -0.00299604172820       -0.04453385985131
C           92.10942854497566       -1.25415059899759        0.07482283630365
C           92.75523440531025       -2.51140807799978        0.21240827352584
C           91.78958039518956       -3.47763486950159        0.27051852766615
C           90.52299865940783       -2.83898087719466        0.16200991533004
N           90.76814834618665       -1.49559472932916        0.05660125456357
C           89.26126847407009       -3.44342096901120        0.18427836982622
C           89.23237176594691       -4.92259204395280        0.26661362696401
C           88.61279765433493       -5.56142530167325        1.34354663406992
C           88.58727525878516       -6.94204434646495        1.42442659688211
C           89.17965025948124       -7.71434734753830        0.42076054431815
C           89.15378904006415       -9.13543166750214        0.49920316258689
N           89.13387971893425      -10.28428033596739        0.56231049383735
C           89.79837040306640       -7.08032197758709       -0.66081298713965
C           89.82530883012295       -5.69919906891904       -0.73204904916956
C           88.04306190447994       -2.75696487243233        0.13462254312614
C           86.73911477246655       -3.40194843534368        0.10760698076952
C           85.82448197095881       -2.41251764414024        0.06761889299584
C           86.56834218073315       -1.16501696102589        0.05651495715631
N           87.90117582149523       -1.41151423570823        0.08756102840601
H           84.86926861192362        0.08886833510363        0.03990837239374
H           84.84241910274579        2.72997205649040        0.01212444793152
H           86.71995317829055        4.62816350068149       -0.12209517352719
H           88.63033630465645        0.86538826857165       -0.09742988866241
H           90.54359737193273        5.24265334571481        1.50080069892484
H           90.60262145977033        7.70632300926312        1.36211500428959
H           88.37800047404147        7.54705770486815       -2.30454336835526
H           88.33406496793005        5.08373415807133       -2.16751656076480
H           92.07455853396293        4.52770433052483       -0.52591193522130
H           93.90967699950056        2.56626975393224       -0.40560681009729
H           93.82322408590686       -2.64857176439840        0.26428386126806
H           91.93826165157621       -4.53844572165510        0.38930644215380
H           90.04505445123961       -0.78763130815883       -0.01810252247622
H           88.16423797079729       -4.96626485183223        2.13085553898310
H           88.11026025342049       -7.42998630427535        2.26632488865983
H           90.25469301730560       -7.67551388941554       -1.44310978808604
H           90.29396745669823       -5.21208017596146       -1.57977190181795
H           86.57150488823876       -4.46692957141901        0.10580312113450
H           84.74883640230478       -2.48769229634198        0.03787255573947
C          188.94526848779060       -0.09056243002423        0.03940987722098
C          188.33551158337548       -1.29827003058827        0.35318652805357
C          188.98647848495085       -2.51510478207084        0.70137349283690
C          188.02398162140960       -3.45885875090018        0.92429574337792
C          186.75374469758705       -2.85111636553221        0.70964781192651
N          186.99234526998433       -1.54814128751527        0.37747376661641
C          185.48982158537370       -3.43977597717605        0.83222662275463
C          185.45733716777400       -4.88052463167188        1.17990213727505
C          184.83641156427561       -5.31185149769223        2.35458966280343
C          184.80460763424065       -6.65514849079871        2.68290339098378
C          185.39264942909483       -7.59820149982128        1.83467004819267
C          185.35884395438347       -8.98187829299782        2.16741165526004
N          185.33228687451444      -10.10107098496399        2.43374645171341
C          186.01420397954766       -7.17212898628810        0.65711850754906
C          186.04704400079748       -5.82647177703503        0.33801075504408
C          184.27397172396346       -2.77597993867766        0.64999394017466
C          182.97685946297372       -3.42463719959420        0.72387328876129
C          182.05659220918457       -2.46599777112392        0.49217676373292
N          184.12004039915763       -1.45529127224280        0.35817097080009
C          182.79267799557806       -1.23699573788877        0.26639377085593
C          182.15584062260487       -0.00965830329344       -0.00794750398355
C          182.79178526633143        1.21560985072120       -0.28326716121622
C          182.14757455690528        2.45668513931860       -0.53110611550449
C          183.11467122134266        3.39605452848625       -0.75849523930162
C          184.38064110461107        2.75369949236417       -0.66537775174126
N          184.13346682904077        1.43963666043804       -0.36830728659381
C          185.64359927200832        3.33717090764162       -0.81406297466982
C          185.67643895017761        4.77777403436490       -1.15953826159620
C          186.29268172930452        5.69634508996962       -0.30608847779955
C          186.32187041295307        7.04264764290195       -0.62200049163355
C          185.73656814156584        7.49749637560877       -1.80744607488108
C          185.76588123634738        8.88202980334137       -2.13688311574599
N          185.78966380632789       10.00114169805869       -2.40358373129866
C          185.12162287186575        6.58218736079682       -2.66686237003938
C          185.09106918762748        5.23803219361141       -2.34160564409056
C          186.86058337960444        2.66397689472665       -0.66034108211106
C          188.16536701933765        3.27155695963348       -0.87349429638298
C          189.07848869262358        2.30992810492053       -0.63152102546394
C          188.33291372280010        1.11333163646576       -0.28229281578627
N          187.00047656761339        1.36157955918599       -0.31878491175010
H          190.03054024825454       -0.09843524834313        0.04729108455498
H          190.05529166876497       -2.63747791413835        0.77443639542127
H          188.17449937027925       -4.48423230130268        1.22069553445145
H          186.26746444993412       -0.86580124098960        0.18202291415915
H          184.38994824969566       -4.58245201294902        3.02086586013422
H          184.32538141320404       -6.98136066808751        3.59851385033106
H          186.46757548815444       -7.90056049950269       -0.00493673986846
H          186.51733094587217       -5.50221522809727       -0.58353631569169
H          182.81419218612876       -4.47343725161424        0.91206396142011
H          180.98274647415525       -2.55764066130869        0.46183241342634
H          181.07960497790148        2.60348772234226       -0.52700017371992
H          182.96718533697117        4.44413191246080       -0.96172917538380
H          184.85566991386477        0.74146300474828       -0.22457787415566
H          186.73577539740018        5.34963248147412        0.62060287968622
H          186.79618018347813        7.74971240107818        0.04846366479242
H          184.67095382515751        6.93023749874614       -3.58893396785065
H          184.62551101328751        4.53010450495202       -3.01808386795752
H          188.33436155158338        4.29110938351572       -1.18046979979127
H          190.15413009448741        2.37094735267743       -0.68459722524534
C           97.94623596554398       -0.05785857220602       -0.04120787976096
C           96.71788993918595       -0.04614802832011       -0.04368208647764
C           95.37342633335402       -0.03423314206992       -0.04484436666582
C           94.14964095157771       -0.01669816162853       -0.04518524403554
C           99.29057403790151       -0.06481512887844       -0.04213788446933
C          100.51464563545454       -0.07268717663930       -0.04082109350360
C          113.98725025852217       -0.02748790938255       -0.02074211718465
C          112.75819006623983       -0.03034311114136       -0.02267295966844
C          111.41462951758683       -0.03720829884825       -0.02552795727582
C          110.18999111401760       -0.04273937761851       -0.03071172271160
C          115.33081669164552       -0.02427427945840       -0.02058631118647
C          116.55549576982767       -0.02499594280592       -0.02004124729073
C          130.03699022331003       -0.02069726638078       -0.02019247296504
C          128.80780527509728       -0.01990133256770       -0.02038765961515
C          127.46405174586688       -0.02142511225369       -0.02057813156123
C          126.23927013877199       -0.02216297116005       -0.02431153622410
C          131.38074543021108       -0.02171624162683       -0.02185694351775
C          132.60552783036576       -0.02579455717826       -0.02205944308946
C          146.09070487439013       -0.02127207405094       -0.01679442167184
C          144.86153202448389       -0.01926712867733       -0.01693792439412
C          143.51780602974600       -0.01986828446008       -0.01621526836794
C          142.29303727292753       -0.02000989762492       -0.02035050744590
C          147.43442382719059       -0.02146460451165       -0.01838143168871
C          148.65919626877823       -0.02535089777922       -0.01851208438504
C          162.14049819500340       -0.01912138259460       -0.01387012905955
C          160.91142770905375       -0.01786822968387       -0.01323391911395
C          159.56783489417947       -0.01947254726645       -0.01414657809416
C          158.34315186270194       -0.02007593889140       -0.01804366096658
C          163.48409981179114       -0.01959226801126       -0.01681125538195
C          164.70875822065375       -0.02307366262822       -0.01853903835393
C          178.18145709373792        0.01756671447080       -0.01489231675492
C          176.95303802138096        0.01735790295895       -0.01886998429895
C          175.60877758795431        0.01392928952003       -0.02002646015508
C          174.38467700258400        0.00716441087348       -0.02320292422599
C          179.52587505279629        0.01451698838613       -0.01286891088820
C          180.74978412326357        0.00503012438094       -0.01092970548783
C          101.91979113011318       -0.07515941500530       -0.04592731374103
C          102.54412134475120        0.83542179904817       -0.92005258991128
C          101.89346036146725        1.76335182932447       -1.77346277238027
C          102.85619377063746        2.43445877923177       -2.47667283248996
C          104.12331106824359        1.92839250155547       -2.07761031943113
N          103.88434836782433        0.97312088679673       -1.12683615578711
C          105.38154475127283        2.33049394717119       -2.54362310516803
C          105.38688378136322        3.35424992520332       -3.61683762674722
C          104.78290006316152        3.09033675793762       -4.84849060995190
C          104.78330769153639        4.04220162184607       -5.85218454691057
C          105.38568702763422        5.28552887755606       -5.63835367859256
C          105.38214280911518        6.26951126175427       -6.66713610396996
N          105.37741281606681        7.06491056663016       -7.49876888225078
C          105.98989094684835        5.55532099613424       -4.40683275034170
C          105.99115180262240        4.59636572115124       -3.40981368998085
C          106.60956469532819        1.85034715611933       -2.08597711750968
C          107.89212686477185        2.25298094170181       -2.63535462060562
C          108.83386179638589        1.58980481337541       -1.93313074303334
N          106.79289932445168        0.94314637050252       -1.08710455153205
C          108.12501307451426        0.77606789631128       -0.96518076110259
C          108.78575604174739       -0.05314064084366       -0.03575863736844
C          108.16086922313308       -0.90307857073051        0.89780717202550
C          108.81097605448925       -1.72027992331166        1.85829519027719
C          107.84820228693610       -2.40071594447165        2.55245392255873
C          106.58139864343819       -2.02482193939833        2.02804364227160
N          106.82109190262237       -1.10972675953851        1.03802879782752
C          105.32324144955335       -2.47877548226479        2.44245498680812
C          105.31080683471548       -3.50348522492911        3.51455259541318
C          105.91843961065773       -4.74567699364018        3.31786221174357
C          105.90190459619440       -5.70406396685412        4.31540916652050
C          105.27949727506399       -5.43310742892590        5.53751944517538
C          105.26245070930969       -6.41612625384912        6.56706866552935
N          105.24939219614112       -7.21064735213659        7.39925164357780
C          104.67347171653101       -4.18973605439854        5.74094458106370
C          104.68849354649568       -3.23854309795383        4.73686263632060
C          104.09554391840891       -2.04831725630690        1.93513766000228
C          102.81392077838571       -2.59332360462508        2.34703134869506
C          101.87216797881055       -1.92228607532927        1.65234670999071
C          102.58005040634470       -0.97715014737198        0.81181772288135
N          103.91244840150516       -1.08442889818256        0.99193432022717
H          100.82545542558942        1.89709514014898       -1.83256518955063
H          102.70367670130020        3.21798499617380       -3.20073020309531
H          104.60612025452662        0.44744121578738       -0.64523625920558
H          104.32523311360366        2.12298400303791       -5.02258206977410
H          104.31794716758466        3.82766141555137       -6.80709251633234
H          106.45486681768716        6.51924921069339       -4.23648875931146
H          106.44960371092732        4.81378513827024       -2.45179834272061
H          108.03099384745505        2.93872042869730       -3.45530645574727
H          109.90570657570477        1.62346674397461       -2.04497505547329
H          109.87871488790371       -1.77088632611694        1.99761824882952
H          108.00030789444712       -3.09458097276590        3.36293899250757
H          106.09947529489808       -0.64919306197481        0.49359300928401
H          106.39012681162345       -4.96528533078243        2.36666071683296
H          106.36901262175483       -6.66828182604294        4.15258518004755
H          104.19320663903564       -3.97477804391485        6.68832346034831
H          104.22719552188435       -2.27147306390550        4.90194274479852
H          102.67561451012162       -3.39048017327166        3.05922522963558
H          100.80095185866288       -2.04120529296975        1.68139264613573
C          117.95967658816798       -0.02527476794571       -0.02297343750427
C          118.58650624979146        0.86669525218446       -0.91511093421659
C          117.93867817073034        1.78216428099086       -1.78369219368476
C          118.90395087479828        2.44515994417075       -2.49131435690669
C          120.16984934487273        1.94558946285874       -2.08042479087569
N          119.92734631581939        1.00180167799278       -1.11882332227419
C          121.42947364180183        2.34448829965107       -2.54535441743990
C          121.43821520393621        3.36192617540519       -3.62479218741008
C          120.84246362128884        3.09047416347029       -4.85870921061412
C          120.84869679640178        4.03677135594625       -5.86772555183304
C          121.44871685605595        5.28175413160229       -5.65704675587217
C          121.45265188208722        6.25949761207802       -6.69178646168238
N          121.45465654134760        7.04956132187053       -7.52839968296466
C          122.04402545701284        5.55932229709130       -4.42292478445249
C          122.03948465995479        4.60599342123221       -3.42058192958592
C          122.65742078338349        1.86837044698487       -2.08286833855035
C          123.93964481294964        2.26693622048218       -2.63616807168361
C          124.88192606228962        1.60687573206337       -1.93172305522901
N          122.84158102460400        0.96765160998250       -1.07837757609181
C          124.17394688235079        0.79982469335628       -0.95779622180234
C          124.83490371779443       -0.02571734515978       -0.02525067031433
C          124.20785096444901       -0.86586664801725        0.91592879806965
C          124.85553651499576       -1.68151977974214        1.87909219343403
C          123.89019541910353       -2.34908397714478        2.58230352736993
C          122.62421870822088       -1.96614782565797        2.06121436120142
N          122.86693455118747       -1.06053589503873        1.06339988975150
C          121.36460661762992       -2.40579068790902        2.48744070006209
C          121.35281210007572       -3.42352548041179        3.56653370352148
C          121.94427150454796       -4.67339054054842        3.36914876164188
C          121.92956457405410       -5.62621423227191        4.37198976797798
C          121.32532407383489       -5.34176881889939        5.60012909004240
C          121.31063346527176       -6.31905339121741        6.63520136036068
N          121.29923256873984       -7.10890037098292        7.47192390050289
C          120.73533832455399       -4.09081714733246        5.80405852759705
C          120.74834747385991       -3.14512666565753        4.79465649916352
C          120.13661277864546       -1.97115818232080        1.98551894059061
C          118.85430639562654       -2.50070311739585        2.41500203628366
C          117.91215372517475       -1.83526354452142        1.71548866478313
C          118.62036822038114       -0.90923512650628        0.85425177672049
N          119.95276261074419       -1.02008919586224        1.02876639340782
H          116.87083105465848        1.91448504507072       -1.84867106768476
H          118.75370786917172        3.21920569483612       -3.22596239393639
H          120.64694614455655        0.48286832673845       -0.62677110616305
H          120.38702928787697        2.12166412538951       -5.03047813506138
H          120.39001836423169        3.81637281181359       -6.82452211923120
H          122.50701533452632        6.52461727375733       -4.25492811636420
H          122.49152889095483        4.82903663046819       -2.46081019651979
H          124.07796136089844        2.94765457020896       -3.46037330204360
H          125.95362289198147        1.63877579789073       -2.04547803157148
H          125.92343022965703       -1.74005863655439        2.01400410516936
H          124.04022189939731       -3.03857131926305        3.39689146334107
H          122.14728884373554       -0.59814918508605        0.51791510123205
H          122.40210573871084       -4.90293673741052        2.41353189254463
H          122.38414556771855       -6.59633006598162        4.20874993177927
H          120.26909984174476       -3.86557904503317        6.75604297905699
H          120.29958920247255       -2.17222849307999        4.96003480487702
H          118.71558151018515       -3.28474371145083        3.14151796410669
H          116.84045115524742       -1.94698695833987        1.75362419002716
C          134.00987071873237       -0.02736669172890       -0.02546869597878
C          134.63765636458714        0.86360253741444       -0.91812743662500
C          133.99100933892629        1.77829190513556       -1.78844543368428
C          134.95720284545567        2.44079205640007       -2.49526955326200
C          136.22266087744177        1.94185600293063       -2.08217191058870
N          135.97881424350962        0.99860956416947       -1.12025778547369
C          137.48261726692365        2.34127609663842       -2.54565193299273
C          137.49307468303110        3.35828027720037       -3.62552671397759
C          136.90093517879941        3.08605310625128       -4.86097030842435
C          136.91158915938078        4.03117824749452       -5.87108456608856
C          137.51246678745304        5.27567976881634       -5.65997312137258
C          137.52255138847678        6.25167453092341       -6.69632169477264
N          137.52810518189730        7.03977991273980       -7.53475987814984
C          138.10365059418189        5.55422979029960       -4.42409747924712
C          138.09468067525444        4.60211168255105       -3.42067185399586
C          138.71074123576548        1.86645082117862       -2.08206375000975
C          139.99291077393815        2.26575953539306       -2.63511793738528
C          140.93549454913898        1.60711544098524       -1.92976685496188
N          138.89524276495590        0.96670000515096       -1.07691498842527
C          140.22777336991081        0.80018115016949       -0.95568499907320
C          140.88873998851821       -0.02421267106719       -0.02228863142219
C          140.26095452289164       -0.86381939624743        0.91881627763505
C          140.90753657719918       -1.67855353660918        1.88338168014322
C          139.94135912452816       -2.34655565379294        2.58502992393965
C          138.67601607320165       -1.96465355029429        2.06154233668777
N          138.91986939633642       -1.05905448715690        1.06412228336841
C          137.41611539796176       -2.40574153917068        2.48571600111516
C          137.40593928086193       -3.42458352149361        3.56387303873256
C          138.00017012319455       -4.67289710777095        3.36477307796108
C          137.98995495714985       -5.62619089683456        4.36719820070016
C          137.38736500643756       -5.34378284053193        5.59662333010077
C          137.37718805037827       -6.32141403394369        6.63143042020194
N          137.36818998403163       -7.11236537929646        7.46715794868956
C          136.79434190527701       -4.09453637088894        5.80212299362371
C          136.80289836782828       -3.14833711139757        4.79312059019179
C          136.18803104408482       -1.97210477486950        1.98328858304295
C          134.90602353863255       -2.50250382598224        2.41267118150065
C          133.96339220665311       -1.83747243265661        1.71338424635150
C          134.67092975617769       -0.91095187231309        0.85209179907365
N          136.00342260095326       -1.02101490039249        1.02656101343930
H          132.92324360587932        1.91038509530936       -1.85517552387646
H          134.80796659946824        3.21415389049672       -3.23084861820560
H          136.69761522624214        0.48014752170299       -0.62654231792560
H          136.44529900242895        2.11741793409687       -5.03318474026000
H          136.45616444787092        3.81001123772490       -6.82925502540147
H          138.56739209678184        6.51911324548441       -4.25579688944660
H          138.54398087319080        4.82570659074283       -2.45973802938594
H          140.13117566673145        2.94583369460131       -3.45985012883615
H          142.00722145687507        1.63983308529221       -2.04303005458389
H          141.97522953978185       -1.73626622061701        2.02021649231153
H          140.09055164214180       -3.03558090384648        3.40015016220422
H          138.20111054225902       -0.59720324430576        0.51703030798094
H          138.45719947040615       -4.90062603174955        2.40833004227561
H          138.44709665652437       -6.59489921982616        4.20274906806878
H          136.32954751659585       -3.87088657126172        6.75518454265127
H          136.35220875637006       -2.17657601355719        4.95989555812669
H          134.76795508596604       -3.28662401208185        3.13923920331316
H          132.89175171097537       -1.94984677405112        1.75155954479656
C          150.06351711473539       -0.02760951228006       -0.02315935049229
C          150.69081865764539        0.86232012519838       -0.91720999912617
C          150.04349668367570        1.77574554444552       -1.78845948056867
C          151.00910011396206        2.43726098240655       -2.49701340347202
C          152.27485765560246        1.93910065697153       -2.08400181918845
N          152.03177106890328        0.99710952646384       -1.12057647197517
C          153.53460475563890        2.33793113676289       -2.54826772626205
C          153.54645693994453        3.35370820179665       -3.62920938131192
C          152.95529785195657        3.08099938427133       -4.86497141709386
C          152.97022574969267        4.02431143025367       -5.87675247646267
C          153.57436265430707        5.26743722019440       -5.66702418520806
C          153.58963909862342        6.24117785231899       -6.70542093586820
N          153.60162626104608        7.02872784289032       -7.54431065683248
C          154.16378399569732        5.54685604719518       -4.43047025396692
C          154.15055042142762        4.59655880576570       -3.42540013747474
C          154.76250679837199        1.86321491336750       -2.08383155774045
C          156.04502739769279        2.26123976238018       -2.63691689499845
C          156.98704321295548        1.60365113473425       -1.92983113301026
N          154.94612016210155        0.96496337975039       -1.07726260177873
C          156.27853336532627        0.79839189641536       -0.95495736354638
C          156.93895854896189       -0.02502124677631       -0.02046281905568
C          156.31174691663898       -0.86520359517496        0.92037588255523
C          156.95912999635809       -1.68043421101502        1.88397384919338
C          155.99358496798061       -2.35015662759967        2.58485514562991
C          154.72794313656465       -1.96853517034729        2.06197266414683
N          154.97086283199042       -1.06156830795289        1.06566817814402
C          153.46820943943371       -2.41035180689893        2.48597725946106
C          153.45902967458511       -3.43142942153749        3.56196224590737
C          154.05420930016663       -4.67878045108522        3.35943482971763
C          154.04697198203240       -5.63393038918897        4.36008609162616
C          153.44654520215255       -5.35435940054523        5.59124208536801
C          153.44155035580843       -6.33312067527959        6.62501430789832
N          153.44003749809431       -7.12483451917859        7.46006532927534
C          152.85186908043755       -4.10643662454001        5.79986591521059
C          152.85741915325602       -3.15835292972760        4.79258567815128
C          152.24036693993429       -1.97498634119538        1.98470738728662
C          150.95793170150512       -2.50393453307290        2.41446820445955
C          150.01585126848479       -1.83725299506813        1.71602742375917
C          150.72418364031333       -0.91134572416213        0.85461479425750
N          152.05652520954766       -1.02309113983482        1.02852923802036
H          148.97567121388590        1.90764663489122       -1.85460158394184
H          150.85940850197099        3.20942965440555       -3.23376487119066
H          152.75113874603446        0.47950196415430       -0.62678014607164
H          152.49753410859603        2.11322560102259       -5.03636338689334
H          152.51594046880874        3.80261247938329       -6.83533997007948
H          154.62980242589094        6.51080311683345       -4.26309753139382
H          154.59885958498006        4.82059913307694       -2.46410596158904
H          156.18400699954924        2.93969766741624       -3.46285130761076
H          158.05883207081195        1.63592936184397       -2.04259158378315
H          158.02688967306190       -1.73743185513197        2.02059418705004
H          156.14341049415111       -3.04008231999804        3.39909487304423
H          154.25155642435843       -0.59986323886858        0.51917179055038
H          154.50988566447293       -4.90410229646072        2.40177425144002
H          154.50511641646560       -6.60173194268311        4.19309598647631
H          152.38850156583436       -3.88510617688467        6.75416273466100
H          152.40580822456124       -2.18747933994262        4.96200074124797
H          150.81926359658598       -3.28814591820679        3.14082755219781
H          148.94408531342339       -1.94819489360794        1.75481537982011
C          166.11307543999402       -0.02327645848018       -0.02471772351158
C          166.73637751023719        0.87027070785829       -0.91778822230161
C          166.08399593320473        1.78221840517583       -1.78713189322330
C          167.04574389154155        2.45062112398774       -2.49426553370617
C          168.31426836672728        1.95879106842469       -2.08204621605433
N          168.07642176108291        1.01263266168313       -1.12124739937232
C          169.57202222839553        2.36799651613300       -2.54177422509378
C          169.58142948830263        3.38815149133878       -3.61845306762856
C          168.99621144244981        3.11669909039103       -4.85733000643280
C          169.01175473572854        4.06283139590635       -5.86648199694568
C          169.61048433581689        5.30760935881195       -5.65094821187003
C          169.62717761598734        6.28407686054753       -6.68674014413041
N          169.64195123800320        7.07084051931806       -7.52631954275357
C          170.19293242909126        5.58617122580668       -4.41091317964163
C          170.17907503663457        4.63311625963293       -3.40848997360902
C          170.80129143778305        1.89807036327586       -2.07539652988532
C          172.08376406667256        2.30815695922835       -2.61972547023825
C          173.02645947828157        1.64961618209608       -1.91455746220389
N          170.98541038241251        0.99238611699345       -1.07614967575440
C          172.31845011591241        0.83096594567365       -0.95041125132832
C          172.97964527332888       -0.00332115832747       -0.02716858070845
C          172.35688036612746       -0.85980315967002        0.90102832775103
C          173.00935995052399       -1.68548119483285        1.85247949438720
C          172.04774087924764       -2.36417594152586        2.54984972060234
C          170.77941582956112       -1.97776264591613        2.03695356250407
N          171.01683774060044       -1.06027688840546        1.04920047862517
C          169.52148759142798       -2.42165086441494        2.46406521294159
C          169.51708591407800       -3.44913614706331        3.53390387302375
C          170.11089668160093       -4.69545723722653        3.32113034002464
C          170.11199723704101       -5.65501092767747        4.31755706687424
C          169.52138561589024       -5.38108159005906        5.55471488779444
C          169.52703968139718       -6.36386159299712        6.58464514282610
N          169.53343208540292       -7.15825929613873        7.41711876778245
C          168.92698723864072       -4.13469829552470        5.77316760579465
C          168.92416908129800       -3.18215853015478        4.77005123886651
C          168.29257885257556       -1.98034103505889        1.97101611399723
C          167.01052361697305       -2.50819140148491        2.40302661499752
C          166.06767932067709       -1.83702434531719        1.70996431848339
C          166.77523553946386       -0.90923826016905        0.84965638279992
N          168.10769576818458       -1.02385471512574        1.01954087614218
H          165.01545308080614        1.90832874096164       -1.85299938413156
H          166.89191783692746        3.22353724430089       -3.22939629472038
H          168.79928514122528        0.49811075330807       -0.62932277426805
H          168.54313986348134        2.14754936547473       -5.03337460548385
H          168.56248421272826        3.84196263095830       -6.82762578692909
H          170.65431803308982        6.55152805763898       -4.23887971229402
H          170.62219713379648        4.85645390082673       -2.44463274813547
H          172.22244393001193        2.99466132527285       -3.43902623656630
H          174.09848142249086        1.68863666443771       -2.02276846740150
H          174.07775258239096       -1.74251749457267        1.98403701802963
H          172.20187628497484       -3.06299050076715        3.35565456671897
H          170.29400438953925       -0.59355247712190        0.51168711753173
H          170.55951561085891       -4.91621928558789        2.35909109925762
H          170.56960365772156       -6.62170580208944        4.14285192723355
H          168.47099719636344       -3.91780989828307        6.73203159676446
H          168.47344478552591       -2.21227835536360        4.94735714295192
H          166.87276558544991       -3.29465636985115        3.12714158974768
H          164.99581460562425       -1.94591142403550        1.75174243372153
