189
 energy: -346.594187949271 gnorm: 0.000660332685 xtb: 6.5.1 (b24c23e)
Cu          25.98884316338401       -0.01597467552863       -0.02600367907393
C           22.58492741034542       -0.07039681964632       -0.10724031466954
C           23.22645843740781       -1.29754230713309       -0.03086847342048
C           22.55736894439151       -2.56366074809546        0.05714297474237
C           23.52083591431544       -3.51432174017865        0.14315866391061
C           24.78846841451231       -2.83778908251242        0.09651646063806
N           24.57807450475332       -1.49237852053509       -0.00192396103959
C           26.03614181201984       -3.46275441177416        0.16821424858794
C           26.05832594075937       -4.94448051213568        0.25979029324339
C           25.54174235081087       -5.72703173432937       -0.77305641186780
C           25.56552592666933       -7.11098653839483       -0.69364160441988
C           26.10340340298884       -7.72917398698550        0.43263433051591
O           26.14285024238210       -9.08143426706054        0.55401169124583
C           26.61963464864914       -6.95905634176822        1.47312682620418
C           26.59868240203832       -5.57862536096215        1.38092805138168
C           27.26463864156335       -2.79964356881608        0.15715897752879
C           28.54630906017685       -3.44608568747910        0.17228676967963
C           29.48658879630232       -2.46846560947307        0.12796006370149
N           27.44549076162384       -1.44272219090192        0.09417737701737
C           28.78750204564678       -1.21959621685876        0.07955529017597
C           29.41661424550799        0.03640873767367        0.01340031114769
C           28.75130260957643        1.27348841211521       -0.05127663961786
C           29.41303987940816        2.54014950967511       -0.14096634973390
C           28.44420977416396        3.48919623662030       -0.19274602375984
C           27.18229236414219        2.80771778480453       -0.12931550359760
N           27.40311807455362        1.45763355257754       -0.05165486000493
C           25.93458458181803        3.43284175675131       -0.17370372289563
C           25.91342928973237        4.91643169151950       -0.22163495388231
C           26.44854174482473        5.66651783010967        0.82847052658488
C           26.42898732208417        7.04953781028384        0.79408568650009
C           25.87591674231406        7.70558106092883       -0.30407223018348
O           25.87594928103714        9.06372704890118       -0.30735810233502
C           25.34230513135424        6.97120559695785       -1.36048315936784
C           25.35997792911609        5.58561326669235       -1.31336756113295
C           24.70574753768090        2.76764211523749       -0.17559919985563
C           23.41853109295473        3.40786421612989       -0.18505415990425
C           22.48365984722694        2.42535850066600       -0.17660548569549
C           23.18996268934779        1.17682569203457       -0.14884915417480
N           24.53525681867708        1.41327641348062       -0.14557627269361
H           21.49989547911822       -0.08697535652802       -0.11875411858867
H           21.48650379524030       -2.69354014353648        0.06110405037250
H           23.39128305064600       -4.58004784694535        0.24273875147115
H           25.13362413973489       -5.24724161949192       -1.65570690965896
H           25.16957560337827       -7.71432764577092       -1.50357587659134
H           25.76064267910015       -9.51559539314065       -0.22041705778994
H           27.03165200706697       -7.45332851932130        2.34420411545965
H           26.99053782569004       -4.97962900452127        2.19539282006791
H           28.70303814428154       -4.51229356778200        0.19828257326601
H           30.55964826076650       -2.57418359209378        0.12262896390570
H           30.48246986068644        2.67565476116451       -0.16684654549546
H           28.56924920020001        4.55616707451264       -0.28205128582148
H           26.86854862608344        5.15624210479020        1.68808444255271
H           26.83711485532614        7.63311185141417        1.61001073530361
H           25.47040238707188        9.41419583639374       -1.11168026907058
H           24.91720567284768        7.48614806437689       -2.21537231912634
H           24.95577210710087        5.01555936807730       -2.14255229023772
H           23.25717985772471        4.47391340696706       -0.18453852098870
H           21.40941861735771        2.52349198198458       -0.17888577089914
Cu          63.19680845404646        0.00123228383252       -0.01483916282420
C           66.60002589960729        0.04687999542233       -0.12656522540234
C           65.95650071756820        1.27159685208739       -0.22205888414927
C           66.62370094466853        2.53780815470083       -0.32113553116397
C           65.65899021048310        3.49007648013773       -0.36522194050785
C           64.39243158303680        2.81275248137439       -0.30431491735443
N           64.60471812689727        1.46719106717567       -0.21126591067937
C           63.14433764391062        3.44089473013014       -0.30953408295994
C           63.12035672196111        4.92029381092802       -0.43214224939531
C           63.62612782626951        5.54578095296549       -1.57191109729769
C           63.60007563991782        6.92663730710281       -1.69318533594726
C           63.07073385446910        7.70076726874966       -0.66337982469585
O           63.02871464911050        9.05617185223267       -0.73880100791368
C           62.56600466019074        7.08874545526395        0.48244771193236
C           62.58925015349566        5.70952252061229        0.59067730766680
C           61.91734037144533        2.78232169057599       -0.21017403721978
C           60.63447295480049        3.42378069928200       -0.26908415825421
C           59.69600363977458        2.44942474883335       -0.16076696481251
N           61.73896387699011        1.42998772413527       -0.07790601718273
C           60.39722408013092        1.20651793313392       -0.04260634851109
C           59.77011265014148       -0.04708674014223        0.06936556937774
C           60.43708175357052       -1.28155885759774        0.16092208575144
C           59.77697089071562       -2.54918959598659        0.24782373621777
C           60.74708263638482       -3.49581343092164        0.31690079822435
C           62.00817668589335       -2.81097621756124        0.27888747063431
N           61.78560558616768       -1.46299822937935        0.17390061414476
C           63.25659465478543       -3.43507527673800        0.31518177182465
C           63.28079947619873       -4.91052093585698        0.47596119127470
C           62.74894538510146       -5.50598899779328        1.62240977140578
C           62.77373528389516       -6.87978605045415        1.78467566341944
C           63.32901549433736       -7.68301360939193        0.79032058725846
O           63.33501065584451       -9.02774002967798        0.98029344580296
C           63.85879274347141       -7.10408001056391       -0.36045913641364
C           63.83574563606462       -5.72592231165202       -0.51058624622402
C           64.48411354810719       -2.77482213669873        0.21565338197795
C           65.77239970017186       -3.40843269000366        0.29041539434125
C           66.70548056830972       -2.43328781855690        0.15687089683681
C           65.99704208282424       -1.19417394698449        0.01228062708166
N           64.65206427433608       -1.42934706571689        0.05533643319776
H           67.68493389141749        0.06281085064087       -0.14655250958725
H           67.69430895547629        2.66786227899259       -0.34367922097942
H           65.78722193709407        4.55918333673631       -0.42024951280615
H           64.02738953104571        4.94382311062985       -2.37964870694740
H           63.98751720730473        7.40690666860498       -2.58538464165192
H           63.40359588889321        9.37453789089960       -1.57089341311483
H           62.16092546211291        7.70337059111319        1.27678205980948
H           62.20660324173618        5.23430166367309        1.48702586919308
H           60.47543222723679        4.48275893970723       -0.39277266158930
H           58.62271705034184        2.55272055737412       -0.16644957161511
H           58.70761704084868       -2.68774863869002        0.24867247037533
H           60.62342609781206       -4.56520428266383        0.37293686778336
H           62.32777573303508       -4.88037389534919        2.40147922172965
H           62.36842515288435       -7.34305878129665        2.67571690845353
H           63.74249494680345       -9.48733703100666        0.23396853738942
H           64.28549451257973       -7.73357910361469       -1.13401979466928
H           64.23703855855690       -5.27788590556157       -1.41287184584643
H           65.93595391347992       -4.46361374310720        0.43975266645636
H           67.77987884697092       -2.52944696285411        0.16356298335140
C           30.82193704711826        0.05468392105176        0.00077942180047
C           32.04623370593075        0.06653590552123       -0.01364342829756
C           33.38893979631246        0.07471360957672       -0.02930444235452
C           34.61940287192778        0.07662292406972       -0.04674233577524
C           35.95729276140533        0.07481790765355       -0.05949067906269
C           37.18792731038585        0.06769148638147       -0.06636071311531
C           38.53044500682650        0.05789132866186       -0.07151311753848
C           39.75507409590674        0.04528956366218       -0.07081109910626
C           49.43181996109757       -0.07572498526129        0.02190217173305
C           50.65631190387180       -0.08774700441335        0.03969847123050
C           51.99866189104011       -0.09886523506875        0.05676998554998
C           53.22929068895575       -0.10342999360998        0.06743334706529
C           54.56717422809396       -0.10323131617444        0.07699186435690
C           55.79776546832313       -0.09890070460585        0.07950324225280
C           57.14048474724540       -0.08630152592058        0.07865762833831
C           58.36479439476717       -0.06835707447311        0.07934554659511
Cu          44.59375903525392       -0.00635483254923       -0.04118073442097
C           41.15967328015185        0.03284981558824       -0.06719846369524
C           41.81501240055490        1.07872479024854        0.60790421432248
C           41.14378073094955        2.11992310777515        1.32548613672043
C           42.10527647726925        2.93702454043951        1.82643253084600
C           43.37043272722298        2.40276212559404        1.41032771614926
N           43.16058521335975        1.26635714165929        0.67504147509419
C           44.61419069703133        2.95330075533973        1.72786530848402
C           44.62282065503804        4.22953665709670        2.48527834352861
C           45.21063244645257        4.30226918860938        3.75054502529595
C           45.21853871826509        5.48939731819966        4.46114607147862
C           44.64151086136629        6.63064877803179        3.90698803664342
O           44.67126287094361        7.78031531451805        4.62899480128972
C           44.05484966546188        6.57421454421899        2.64485391704128
C           44.04408942152627        5.37803304021287        1.94429740193282
C           45.85024568672917        2.39820767641039        1.38937748763970
C           47.12377991214147        3.00184341818822        1.65972915392743
C           48.07370830967230        2.15981138454535        1.17859664706624
N           46.04371441677980        1.20889097528430        0.73785024519820
C           47.38706876938272        1.04294525810305        0.60343536575147
C           48.02745678260452       -0.05649595201848        0.00308483205048
C           47.37119933396428       -1.13490055243155       -0.61741327594232
C           48.03923289133630       -2.26901387605381       -1.18049747014308
C           47.07798139734555       -3.07766812937664       -1.69537188314998
C           45.81632567914971       -2.43702718747191       -1.45601314125186
N           46.02754060482580       -1.25907880534062       -0.78988543596522
C           44.57396233937026       -2.95209460565999       -1.83309091984945
C           44.56738718238248       -4.21386765489374       -2.61432776767426
C           43.94229498176532       -5.35684870389781       -2.11502195405774
C           43.93740895135019       -6.53682180745300       -2.84275858299355
C           44.55537345317481       -6.58218452604010       -4.09028770073233
O           44.57028784346381       -7.71546771137797       -4.83832545726775
C           45.18038424952823       -5.44657438124573       -4.60231130359386
C           45.18738746596893       -4.27602888479494       -3.86483182451715
C           43.33844048773940       -2.37301671754600       -1.53467160140353
C           42.06801722935795       -2.87217870067054       -1.97757124728758
C           41.11759672294824       -2.04077085263854       -1.47896440232333
C           41.80120617119609       -1.02327365521878       -0.73953407849403
N           43.14315478458442       -1.24051933552099       -0.78917372363736
H           40.07420509296337        2.20219104881445        1.43463022995399
H           41.97307356767940        3.81523857592221        2.43744997401121
H           45.64925610699714        3.41178244822799        4.18685312510026
H           45.66676109647027        5.54663825208378        5.44538340070760
H           44.24082519677006        8.50486409218107        4.15571303608384
H           43.61062032484237        7.46588998771902        2.21555156056523
H           43.59753898479701        5.33822537104634        0.95693345793378
H           47.26913210577766        3.95476361101330        2.14224859352299
H           49.14498275996839        2.28067689306201        1.19848947988416
H           49.10647094661753       -2.42266055305070       -1.17066514251654
H           47.20742866641081       -4.03170671489838       -2.18023669498719
H           43.47130828137510       -5.32653937216833       -1.13875974114771
H           43.45645045231038       -7.42451905037621       -2.44605566955683
H           44.10847365603541       -8.43806291826275       -4.39232376535162
H           45.65338042089098       -5.49503420359363       -5.57535120629861
H           45.66349608173824       -3.38934362710581       -4.26834890110672
H           41.92512496397403       -3.73859133439758       -2.60284543062887
H           40.04815871110640       -2.09744254547175       -1.60472020475437
