111
 energy: -201.299693006881 gnorm: 0.000654914607 xtb: 6.5.1 (b24c23e)
Co          19.04854612660046        0.33664754004770       -0.51476959179903
C           15.78563035461264       -0.16160998713751        0.12520507647376
C           16.40177339164733       -0.98014410276940       -0.80033081476770
C           15.72470254692855       -1.98959607041657       -1.55998819892589
C           16.60675715065156       -2.43913904636855       -2.48465309607800
C           17.84048495065221       -1.74947081434677       -2.24744965180148
N           17.69879994140281       -0.85202426575528       -1.22358821803460
C           19.03319749735791       -2.05553866701184       -2.87488723450266
C           20.25206986407829       -1.59393823049699       -2.42566214964013
C           21.51523886193795       -2.12666330365536       -2.83827729589964
C           22.45188846061754       -1.57893283534223       -2.02545313017491
N           20.42754190233528       -0.67979557534628       -1.41356632300808
C           21.76738289138545       -0.66325733775019       -1.16522493267018
C           22.41706575330959        0.22465770397656       -0.29768376332495
C           21.74412984903510        1.33464817735888        0.22991146788880
C           22.40320605413293        2.46610333163873        0.80569432197130
C           21.44569211532146        3.39328721313123        1.05294643840791
C           20.19562745428191        2.79838416221623        0.68831172242482
N           20.39966631244900        1.54514997634724        0.15995316036106
C           18.96459498849822        3.34421358910759        0.98268938028671
C           17.78784771584540        2.62453955991721        0.89736529282430
C           16.54442167140812        3.04363356568926        1.47356095614049
C           15.68218362936277        2.00790442505953        1.33602052651695
C           16.38104434821308        0.98156194693819        0.61984522564495
N           17.67275446484910        1.36618086393249        0.37134941993054
H           14.75255506174028       -0.36060863626290        0.38515744810334
H           14.69680842238675       -2.27971331713802       -1.40965440655927
H           16.46391007871562       -3.19028666122184       -3.24538046359766
H           19.02109256819860       -2.78223376209264       -3.67886048728298
H           21.64598597052175       -2.85067691379363       -3.62675664734600
H           23.51798633884518       -1.74001336400480       -2.02346164323069
H           23.46769058037197        2.54169210364752        0.95838106365620
H           21.55439220261185        4.37976809380681        1.47481947359554
H           18.93057192092026        4.33952041125460        1.41023092292921
H           16.38194447829681        3.99993363507886        1.94518960981967
H           14.65423914410632        1.93768876842583        1.65493769142787
Co          40.22159835178738        0.29982786619054       -0.50399246973226
C           43.45524835547588        0.15534692229014        0.40009088209955
C           42.77940809539911        1.34570636763437        0.58049778637031
C           43.38471602169957        2.54994881195716        1.06837363569504
C           42.47152247039848        3.53783028722921        0.90872958632400
C           41.28741017419370        2.92429897859912        0.38422999647849
N           41.49101547695017        1.58633968777747        0.18021240467569
C           40.07658281127101        3.57398890322459        0.23514629336197
C           38.89199804263148        2.90180801865509        0.02276438850021
C           37.59554637891910        3.48870914113165        0.17880552894428
C           36.70001700845256        2.47240303334571        0.12252997955108
N           38.77941399355250        1.54884635885478       -0.19707912162606
C           37.44556333070602        1.27886830782452       -0.13560422344487
C           36.85745573410400        0.03910506957266       -0.42107081634557
C           37.59648313369109       -0.98222491167349       -1.03155245162837
C           37.00935872192264       -2.11386431189122       -1.68023235300419
C           38.01777763448521       -2.77899458445792       -2.29565667016729
C           39.22728972704384       -2.08892871571193       -1.96302686396513
N           38.94832109129755       -0.97584182578724       -1.20567951020555
C           40.49164084594388       -2.56784996493527       -2.23341624270733
C           41.62856867585224       -2.05398682524731       -1.63901374528052
C           42.90534127238642       -2.70511412502171       -1.64692456177442
C           43.70588301554306       -2.00406674674445       -0.80855634724960
C           42.93690960891729       -0.88895755644246       -0.33973291883922
N           41.66478139831754       -0.93837500129522       -0.84660867719924
H           44.47720585420945        0.08201599429894        0.75314530152252
H           44.39157599761146        2.61595345338119        1.44942839862937
H           42.56158307620669        4.58587869950015        1.14706871527755
H           40.03912488539385        4.64254804977683        0.41215281774803
H           37.41484926606495        4.53886648216554        0.34449619784464
H           35.62601756213238        2.51741887240585        0.20556561116134
H           35.95422563523478       -2.33554468416029       -1.68725975957905
H           37.96904508693591       -3.67483343008586       -2.89404574640524
H           40.58630618008281       -3.45923019251506       -2.84257334150715
H           43.13034000316522       -3.60081173149257       -2.20405632618309
H           44.73451051116182       -2.19068073665879       -0.54315239500440
C           23.78348053299713        0.05666518725868       -0.03500300251547
C           24.95630394062306       -0.12693497491381        0.24183966100768
C           34.31435020446786       -0.29990596463856        0.10644257599642
C           35.48895354379263       -0.13860705342249       -0.17632965906907
Co          29.63734631688545       -0.65095101091294        0.94147460995922
C           26.30780191311114       -0.33597073901709        0.54713505265023
C           26.97526451141756        0.57272162511344        1.38101625806240
C           26.31727539256490        1.59675774496422        2.13140479212334
C           27.25122381478753        2.14644082039816        2.94706863486278
C           28.49010123253119        1.49864134643465        2.64405279581899
N           28.29870866083307        0.51739384673852        1.70156679815513
C           29.71951759402280        1.91702361402419        3.11090582169776
C           30.91294779690340        1.48464238491320        2.56861028079789
C           32.17614216159719        2.11709595156976        2.79259912301491
C           33.05855931788082        1.53145339302495        1.94518019051635
N           31.03730732708551        0.48443093085908        1.63557764784702
C           32.34574652780523        0.50227741521623        1.25337903434591
C           32.96196268328866       -0.45820553792233        0.43813098195298
C           32.29640570275039       -1.64140428744039        0.08852970612486
C           32.95426134036062       -2.80512241205198       -0.41908509191534
C           32.02508886779086       -3.79225108075097       -0.46337501227039
C           30.78836181399512       -3.20844181379964       -0.04349967421335
N           30.97653309092652       -1.89568842059753        0.31508168906577
C           29.56155533888051       -3.83293151939827       -0.14335662469886
C           28.36473311904685       -3.15389035789124       -0.03464932168269
C           27.09963119966801       -3.67872064865369       -0.44741370723927
C           26.21328302239571       -2.65436813050806       -0.37700651466020
C           26.92562947066537       -1.52727046828312        0.14054820515752
N           28.23731396328364       -1.83917389694818        0.34171985978992
H           25.26725092675109        1.82973046918376        2.05997058205217
H           27.13502161076728        2.94087671456032        3.66694371053700
H           29.74711986881078        2.71001378033997        3.84935623125404
H           32.34245636889089        2.92467718926570        3.48759495205406
H           34.10817129774116        1.74200857790489        1.81821684330177
H           34.00094727288163       -2.85514383425365       -0.67250678227067
H           32.14249534549979       -4.81580710685198       -0.78182381526245
H           29.53708024436750       -4.87429238276710       -0.44310480515101
H           26.93474158789527       -4.69210647425870       -0.77714373163212
H           25.16152260368778       -2.65832700370701       -0.61384643677891
