232
 energy: -421.375694965288 gnorm: 0.000509658157 xtb: 6.5.1 (b24c23e)
Cu          33.20856820906160       -0.02110642218935       -0.01738644549364
C           29.80186751370829       -0.05431188775218       -0.04145416149692
C           30.43707394032761       -1.28062797227287        0.08200945276280
C           29.76192796279204       -2.53834109874987        0.22904851674880
C           30.72064693042283       -3.49022662807642        0.34376481863441
C           31.99135291915124       -2.82262353344301        0.25934143969196
N           31.78796061740237       -1.48152309336210        0.10564822001225
C           33.23580344180062       -3.44877063872936        0.35850871718500
C           33.24622825114902       -4.92320986636283        0.52044494164557
C           33.75972670537643       -5.52286695466987        1.66958883262606
C           33.74178240073426       -6.90463694203526        1.77640106259316
N           33.25906264754541       -7.69848127161445        0.82596783488052
C           32.77060579378418       -7.13494219369795       -0.27421769817869
C           32.73989928463622       -5.76326768927702       -0.47046861079966
C           34.46910109283654       -2.79628161709759        0.31701848823767
C           35.74631616121061       -3.44884575999017        0.37817661210064
C           36.69271733759965       -2.48125733140444        0.28067068337230
N           34.65793327346429       -1.44695039816152        0.17418022021849
C           36.00193690250101       -1.23328260227321        0.15163220316626
C           36.63836565761637        0.01101369440078        0.00023308451234
C           35.98006309710809        1.24353655926797       -0.15327977706029
C           36.64818685067968        2.49727108751866       -0.33424360308286
C           35.68476430192074        3.44713154685329       -0.43980489478280
C           34.41983099753173        2.77951883951900       -0.31651814983811
N           34.63257054922893        1.43606693910662       -0.15399243470028
C           33.17485320506637        3.40832500762689       -0.37887904477301
C           33.15958831411775        4.88394328544895       -0.52502465957173
C           32.59101508155224        5.49673006139718       -1.64109021843867
C           32.59793403251652        6.87983964260422       -1.72985098145027
N           33.12139064953156        7.66336422966767       -0.79246708157986
C           33.66471547976972        7.08744369409336        0.27514597859879
C           33.70962937559542        5.71351982722335        0.45153707406625
C           31.94134603725273        2.75629197787033       -0.31193808114307
C           30.65905034717962        3.40659461791931       -0.33382467430962
C           29.71766923776142        2.43486830414921       -0.24462556439449
C           30.41517115933442        1.18391997835386       -0.15669046216178
N           31.76214086352805        1.40817610586782       -0.19301043057825
H           28.71680887054533       -0.06342514743116       -0.03625294562099
H           28.69053451942746       -2.66154458972788        0.24774859874447
H           30.58691894969197       -4.55054798177615        0.48553986693353
H           34.15326257739336       -4.91472283782507        2.47535101728483
H           34.13144106291196       -7.39449314215716        2.66400601555158
H           32.38616406936837       -7.80961570822785       -1.03358215542127
H           32.34152821725697       -5.34856776240776       -1.38881716897760
H           35.89553789458942       -4.51237643296017        0.47069674400043
H           37.76510405080859       -2.59321550480970        0.28776695267150
H           37.71806985522414        2.62355720616809       -0.37906182111329
H           35.81467548591931        4.50509225545030       -0.60036310250011
H           32.16300669579230        4.89777369454067       -2.43614175951018
H           32.16394406589328        7.37951487609423       -2.59103807782374
H           34.08232330393805        7.75376054344127        1.02432473200367
H           34.15193216110827        5.28877529173999        1.34485176706646
H           30.50599664034251        4.47187961887182       -0.39698032130621
H           28.64444933533889        2.54173819060402       -0.23084918848488
Cu          81.34320854988160        0.03362211051265       -0.01742541875978
C           84.74942791174269        0.05060612743936       -0.06329700391883
C           84.11612071590410        1.26036465788324       -0.30424630502773
C           84.79339558003406        2.50401463601636       -0.53640765847643
C           83.83631538268315        3.44917745136945       -0.70695122208050
C           82.56447493568820        2.78883821586836       -0.58946113037466
N           82.76559526019612        1.46200472726259       -0.33886258960276
C           81.32091108793854        3.41758023732361       -0.68338948556142
C           81.31145686520462        4.87413247929611       -0.96344213455087
C           80.79145212060304        5.78463202663784       -0.04442996845384
C           80.80969848457747        7.13676890010842       -0.34830205624675
N           81.29883082089613        7.61672558329548       -1.48712941637826
C           81.79342775487744        6.75519450087700       -2.37012773891168
C           81.82420736615720        5.38640950000316       -2.15448444250142
C           80.08672122098618        2.78281411275647       -0.53369432763735
C           78.81041549647651        3.42402712592443       -0.67751477691840
C           77.86277070066485        2.47254969308392       -0.48223809592625
N           79.89621798602755        1.45318908638304       -0.26436125119241
C           78.55202855314944        1.24387158172962       -0.22464418569566
C           77.91405166277032        0.01511828554472        0.01916854598425
C           78.57037534250179       -1.20535212606757        0.25538231164553
C           77.89966460804300       -2.45214774770405        0.47121222623388
C           78.86142252365033       -3.39300147081510        0.64823331221323
C           80.12795546430007       -2.72434992948514        0.54953927845615
N           79.91756670867684       -1.39362227641460        0.30119434374404
C           81.37204188134555       -3.34795351904632        0.66120717673129
C           81.38561303805031       -4.80202914035724        0.95212658413391
C           81.93830305002666       -5.71441778010368        0.05401102111238
C           81.92868059058191       -7.06398666412791        0.36924608562936
N           81.41717045993491       -7.54013397297026        1.49985877978690
C           80.88966223119293       -6.67716127898541        2.36220836847183
C           80.84874616887448       -5.31065954925272        2.13419966161699
C           82.60623606378870       -2.70945078818313        0.51879880175709
C           83.88791700120105       -3.34133768634330        0.67874214620650
C           84.83055057057129       -2.38892261625442        0.47191010805847
C           84.13450435468475       -1.16539605295106        0.19331277256289
N           82.78715900545744       -1.38670288736834        0.23372437142966
H           85.83450916049323        0.05837561936670       -0.06542471782843
H           85.86500054370707        2.62511321966117       -0.55656043480966
H           83.97201172869228        4.50370191173801       -0.88537616972228
H           80.39250006403456        5.43976364014079        0.90208464611059
H           80.41485455769975        7.86539319957150        0.35372618660335
H           82.18293150704166        7.17732043118404       -3.29191821223325
H           82.22734610572086        4.72060193669044       -2.90827197903916
H           78.66256029549298        4.46597695745530       -0.91077514764811
H           76.79054980213077        2.58204832431368       -0.51298853918348
H           76.82929950530088       -2.58206537139154        0.47780525940253
H           78.72900339056855       -4.44927401659738        0.81750265308705
H           82.35586146763222       -5.37311014734887       -0.88578429373774
H           82.35005033165378       -7.79360798401607       -0.31615413059292
H           80.48162963268021       -7.09618228150268        3.27739957295235
H           80.41943248970533       -4.64354617719485        2.87222227925681
H           84.03968230025667       -4.37865803706764        0.93011519455119
H           85.90377574991744       -2.49007265952339        0.50879087764555
C           41.84161654503167        0.03507049246892       -0.03134858603025
C           40.61362532967176        0.03376091436829       -0.02195449931292
C           39.26843358585212        0.02953436086424       -0.01107428865842
C           38.04500939197712        0.02136398818928       -0.00808948615859
C           43.18667277699276        0.03189660427854       -0.03917572887332
C           44.41035780650252        0.02837001749667       -0.04562317777643
C           57.89164919286051        0.01987277956784       -0.02149692964225
C           56.66313856657104        0.02033195163019       -0.02167484017026
C           55.31879200772178        0.02208289192754       -0.02376576452171
C           54.09472103576230        0.02193608611077       -0.02646374279603
C           59.23600342012718        0.01712298067076       -0.02087793427552
C           60.46008867291031        0.01397955345427       -0.02118462927750
C           73.93932820482600       -0.00450218431929        0.00514093766170
C           72.71132819092563       -0.00672600313271       -0.00188212122896
C           71.36656367173447       -0.00765771262056       -0.00893912096140
C           70.14282903588897       -0.00856955422529       -0.01832656158975
C           75.28422663124557        0.00081458095488        0.01205073430084
C           76.50774093977982        0.00528741197670        0.01657369797767
Cu          49.25264547113462        0.01815453630970       -0.04373016458657
C           45.81628640962725        0.02314413764529       -0.04819070853908
C           46.46230258331886       -0.86564701064260        0.82955895714545
C           45.78205270905474       -1.72878968049001        1.74765239836462
C           46.73620169205238       -2.42704879807684        2.41415996680278
C           48.00622423602749       -1.99973219860404        1.89987750080298
N           47.80662628374711       -1.04330979657029        0.94030982824284
C           49.24593009330348       -2.47392848754155        2.33362139317813
C           49.24377836162245       -3.54247393985251        3.36197951383689
C           48.67061167692493       -4.78888798887358        3.11290490986810
C           48.69528126851218       -5.75473560069376        4.10666141024529
N           49.23949406270992       -5.55071398273437        5.30196551334024
C           49.78609240897767       -4.36448639327796        5.54845032955666
C           49.81495845517576       -3.33818085110970        4.61756277402700
C           50.48792841382848       -2.02277290796615        1.88227450733681
C           51.75517070563708       -2.56099953653725        2.28763267272006
C           52.71332618391016       -1.86372534814415        1.62568522803531
N           50.69314095357904       -1.01879277622443        0.97371046199321
C           52.03826857089639       -0.90222994282798        0.80706784238859
C           52.68960633958614        0.02115092455613       -0.03074793317263
C           52.04270803573502        0.94279551646851       -0.87390141111772
C           52.72201159730489        1.90558898683153       -1.68740016580424
C           51.76767550066985        2.59818956962291       -2.35968871573617
C           50.49855049246117        2.05612071830187       -1.96543095607661
N           50.69873179539577        1.05489396715804       -1.05275058118833
C           49.25929176400339        2.50185888921256       -2.42987692738294
C           49.26438611379487        3.56357164295206       -3.46509103036434
C           49.85322105715315        3.35384921345154       -4.71167575135210
C           49.83205341056055        4.37383113072702       -5.64966398786872
N           49.27642385318551        5.55895175110130       -5.41849640891389
C           48.71509875779439        5.76810536521121       -4.23201342204238
C           48.68201221980756        4.80887224549564       -3.23212015348809
C           48.01705401867131        2.02909651746157       -2.00164072654802
C           46.74967391807510        2.45425674761276       -2.52423467440234
C           45.79174815947265        1.76403376746415       -1.85472952950948
C           46.46709009257798        0.90602776425434       -0.92830544350239
N           47.81219249778174        1.07955861092298       -1.03629037609378
H           44.71159953874717       -1.78104384105268        1.86586315714179
H           46.59617539022737       -3.15733127431226        3.19451090181479
H           48.22573119480131       -5.00427697325268        2.14870667110692
H           48.25900907325592       -6.73437742055946        3.93468324639197
H           50.22054242139209       -4.22738400853152        6.53438424343308
H           50.26150902338928       -2.38293350337336        4.86677407710685
H           51.89054182632029       -3.37708958584720        2.97869744337131
H           53.78328827124842       -1.98750817150797        1.67506433531959
H           53.79191925732493        2.03344104344935       -1.72658462533962
H           51.90675932669924        3.41410727456188       -3.05021256307798
H           50.30771287486855        2.39920963045415       -4.94858968500283
H           50.28075181538477        4.23245824470551       -6.62859592543127
H           48.27183957836665        6.74670983044756       -4.07243388049181
H           48.22380218136556        5.02879162295521       -2.27521577119281
H           46.61370207347501        3.17771947888366       -3.31162639153917
H           44.72178739930455        1.81737734404728       -1.97694262554860
Cu          65.30136345640804       -0.00184877731120       -0.02524666795681
C           61.86518690946567        0.00927460317587       -0.02230361339423
C           62.51203168634643       -0.86966281854887        0.86542177363413
C           61.83297718081129       -1.72091581521480        1.79527446189194
C           62.78740204951099       -2.42151500507206        2.45916755310848
C           64.05623070704068       -2.00725497190656        1.93170548054847
N           63.85586967728234       -1.05425239037117        0.96866986445109
C           65.29554065727491       -2.49309041445037        2.35337065077917
C           65.29437381849367       -3.56532679231460        3.37776313701298
C           64.70613206935585       -4.80482609069759        3.12906319894676
C           64.73497934122878       -5.77692550148388        4.11654230382143
N           65.29697319973781       -5.58520774833618        5.30566442622889
C           65.85738331222669       -4.40543294624322        5.55206605075583
C           65.88354406856644       -3.37373810206607        4.62701906735061
C           66.53709368197198       -2.05239635572627        1.89043253163419
C           67.80379110199270       -2.60129423660028        2.28307817921595
C           68.76147826224755       -1.90646718527707        1.61795279768136
N           66.74180794449963       -1.04616112178638        0.98446599451824
C           68.08646690000364       -0.93630632611780        0.80951479998151
C           68.73728934328329       -0.00744412790467       -0.02205606006123
C           68.09116654630036        0.92112162227975       -0.85746266600549
C           68.77082492202683        1.88635460565989       -1.66788564039615
C           67.81666472334159        2.58172456870938       -2.33750385609453
C           66.54737906832855        2.03841731817101       -1.94530585769025
N           66.74715511259323        1.03445143559789       -1.03576195878539
C           65.30797542045481        2.48286318070950       -2.41069640671078
C           65.31172552503682        3.54986292695301       -3.44039247869332
C           65.90468767313760        3.35097890681156       -4.68674969520523
C           65.88182593808634        4.37734798404383       -5.61779331577760
N           65.32081210245219        5.55862219008306       -5.38010856663684
C           64.75540277659974        5.75744358249903       -4.19377067261172
C           64.72352075100088        4.79121680153384       -3.20065517798835
C           64.06621255074710        2.00548779865473       -1.98625534205585
C           62.79916860600910        2.42499558397836       -2.51395356468292
C           61.84133532889854        1.73399918429804       -1.84495015525195
C           62.51641014247411        0.88238808775265       -0.91258243558045
N           63.86125994724603        1.05794607161763       -1.01876423968069
H           60.76313929823346       -1.76461380660394        1.92225204119109
H           62.64868053875041       -3.14515037938338        3.24594249750400
H           64.24683779563095       -5.01018679522146        2.16944062667044
H           64.28772184755186       -6.75156736594308        3.94436234757814
H           66.30613532650221       -4.27838658666278        6.53293802206671
H           66.34231515089391       -2.42425355459628        4.87608801205960
H           67.93925252519186       -3.42173907840312        2.96893502890012
H           69.83098622990042       -2.03704032006022        1.65898486472510
H           69.84084314672815        2.01317727584568       -1.70743864632757
H           67.95617221862123        3.39943590542666       -3.02580979327576
H           66.36354138465923        2.39981410952886       -4.92917041332720
H           66.33357378154143        4.24445043254770       -6.59650882950252
H           64.30759264552771        6.73307322819166       -4.02874511852178
H           64.26174455377712        5.00256897012178       -2.24353044514752
H           62.66352749728489        3.14515859404350       -3.30443358316313
H           60.77160360961916        1.78398184703685       -1.97047231173047
