124
 energy: -225.950688483894 gnorm: 0.000752190346 xtb: 6.5.1 (b24c23e)
Cu          14.32166016549171        0.01639785112965        0.00836636638363
C           10.91804101266698        0.03882027698028        0.13718558181304
C           11.55719958978875        1.25473007229687        0.32704993201491
C           10.88676516911100        2.50754835384971        0.52788909978274
C           11.84919945146921        3.45104023003273        0.67651197478590
C           13.11748277510648        2.78003363266171        0.57979068178122
N           12.90877070892275        1.44970260567309        0.35842248700139
C           14.36563904656952        3.40053485021467        0.67808628024258
C           14.38510199344540        4.85488013424718        0.96766036177155
C           13.83884355394287        5.34758927190743        2.15510004746752
C           13.85774940533723        6.70300257110796        2.43085908087580
C           14.42198695937684        7.59655666040254        1.51554738321489
C           14.44191983098210        8.99218865258434        1.79493971574604
N           14.45240001414584       10.12051176433395        2.02089863062241
C           14.96767993161781        7.10900708553335        0.32432063697516
C           14.95004294055305        5.75169270966156        0.05792268493922
C           15.59626757768229        2.75767646837518        0.52746019208803
C           16.87732146085235        3.38409589848642        0.69489757288604
C           17.81807618524110        2.43102427263053        0.47547412202111
N           15.77744698384360        1.43462363720188        0.22338305834235
C           17.11977069243996        1.21579254465952        0.18095548933523
C           17.74917536947700       -0.00726281582794       -0.11167523375369
C           17.08440482563070       -1.22059114521717       -0.36314632611582
C           17.74324233004708       -2.44447376277376       -0.70790750660426
C           16.77595040865632       -3.38360405267310       -0.86349878750725
C           15.51879381708723       -2.74018330504285       -0.60442931815553
N           15.73934692478532       -1.42041180429996       -0.31210900820161
C           14.27175930755353       -3.36620684039603       -0.66437394663590
C           14.24905216017581       -4.82015874464030       -0.95559031255450
C           13.60717711722039       -5.30280015550722       -2.09845560704886
C           13.58422129197621       -6.65794476141837       -2.37512783058820
C           14.20205163720810       -7.56140144180903       -1.50532636537120
C           14.17662394474805       -8.95675149398694       -1.78569445478969
N           14.15618669173222      -10.08495784799500       -2.01146408669021
C           14.84389730304405       -7.08394260180171       -0.35880176417021
C           14.86743410522492       -5.72686529794100       -0.09153208062825
C           13.04278908131476       -2.72955110256590       -0.47186891369368
C           11.76230341155902       -3.38417733661743       -0.47178625912969
C           10.82615551679928       -2.42874910317481       -0.24981781563391
C           11.52583143000891       -1.18477511749982       -0.10055685024106
N           12.86852557032186       -1.39685895542962       -0.23486564301700
H            9.83373095361648        0.04546797271294        0.17860544058364
H            9.81596752638970        2.63624654551912        0.54081782721372
H           11.71878245293947        4.51076561340861        0.82586911851260
H           13.41173030847864        4.65661235102844        2.87312921768815
H           13.43746823512479        7.07685390238232        3.35716543380002
H           15.40308722503774        7.79898453696264       -0.38897807950564
H           15.36362619995390        5.37883094752749       -0.87230703692714
H           17.03343963098088        4.41674276734360        0.96172864860257
H           18.89093149958079        2.53086884057335        0.51491462722307
H           18.80927368739260       -2.55853851569726       -0.82281084359032
H           16.89821900517746       -4.41739538587012       -1.14342434817193
H           13.13732260544939       -4.60441083001649       -2.78173382580982
H           13.08897387434440       -7.02405301228547       -3.26680236479603
H           15.32089172353191       -7.78158606320495        0.31956096574362
H           15.35549393778086       -5.36169485930688        0.80503101546971
H           11.60734053565594       -4.44199516120270       -0.61083537399807
H            9.75593485497069       -2.54361722701228       -0.18086752959669
Cu          32.91915281110488       -0.01891109773221        0.00968960190179
C           36.32268775579433       -0.03401133923643        0.13888272967465
C           35.68388697009596       -1.23906704674420        0.38939653954127
C           36.35455669586482       -2.48042421375133        0.65134978606209
C           35.39229547765606       -3.41471041850584        0.85065444611768
C           34.12390629923144       -2.74881281911658        0.72430118036259
N           34.33235586396083       -1.43174548246178        0.43413103156543
C           32.87572327257044       -3.36204663608232        0.86107977323271
C           32.85633013588902       -4.79842125026303        1.22910609060202
C           33.41194306228511       -5.22734439313252        2.43683595546554
C           33.39314258122999       -6.56577097480733        2.78572358167352
C           32.81941179451536       -7.50641071166342        1.92509074126333
C           32.80131247738368       -8.88484762750804        2.27974911008641
N           32.78920280054183       -9.99907284472649        2.56706146601516
C           32.26417148942789       -7.08290916288578        0.71394178034277
C           32.28200018530764       -5.74207359227445        0.37419872059780
C           31.64495253878213       -2.72697856960752        0.68090185379485
C           30.36408373670751       -3.34167892739473        0.88847771083582
C           29.42314039511924       -2.40210472432037        0.61762828282650
N           31.46355730710172       -1.42316427850029        0.30294106226684
C           30.12116529380695       -1.20633211455967        0.25169961583745
C           29.49173245401241       -0.00229841708113       -0.11108561727870
C           30.15659050275809        1.19442865479297       -0.43238020845456
C           29.49794790298178        2.39580588563398       -0.84916420097841
C           30.46502249656372        3.32536818711150       -1.05537948203384
C           31.72181889500628        2.69913804234349       -0.75562543666711
N           31.50135926813730        1.39791525324919       -0.38944414875229
C           32.96849859937367        3.32250611165345       -0.84465620396733
C           32.99106094943335        4.75834676124198       -1.21457036696647
C           33.64133699827499        5.17918556669820       -2.37700880954605
C           33.66459278969731        6.51723745882892       -2.72706143641130
C           33.03836575096945        7.46562885103507       -1.91285865283642
C           33.06454210278828        8.84388367959022       -2.26781982011866
N           33.08574747345063        9.95808003868440       -2.55490949241916
C           32.38763920724846        7.05016963964863       -0.74733427989834
C           32.36405879567618        5.70969050292131       -0.40647683709796
C           34.19726039258659        2.69844024905723       -0.61315857626313
C           35.47716387944338        3.35357284045854       -0.64219534432027
C           36.41349213900937        2.41152718580168       -0.36950906229369
C           35.71445940112019        1.17600324595610       -0.15957456874617
N           34.37190346547739        1.37984336543869       -0.30749161318049
H           37.40700773833859       -0.03825299555015        0.18037540201516
H           37.42534832119156       -2.60885830111771        0.66731312217772
H           35.52297562442713       -4.46560232031862        1.05287577120318
H           33.84634668377404       -4.49948827551049        3.11283673469487
H           33.82100441382180       -6.88990959057501        3.72717543769682
H           31.82138520285971       -7.80947949270870        0.04275369874744
H           31.86123975749896       -5.41933450521471       -0.57143769040219
H           30.20814839970546       -4.35702307657072        1.21512266178406
H           28.35037502332666       -2.49875114693455        0.66625500084309
H           28.43220188029601        2.50200673959882       -0.97384396783388
H           30.34282104145353        4.34116077907627       -1.39484277041202
H           34.11755534774472        4.44539131944499       -3.01744683513381
H           34.16667105909085        6.83504491725910       -3.63329162553527
H           31.90374751938097        7.78283847618653       -0.11213627434651
H           31.86913742804798        5.39316702448778        0.50468103348955
H           35.63163288248244        4.40323054463992       -0.83374485490394
H           37.48339927640550        2.53086086898064       -0.30330757173075
C           19.15420415582235       -0.01638312697065       -0.15070615260036
C           20.37824637012357       -0.01582168689014       -0.17793126144076
C           21.72097495826398       -0.01461373546091       -0.19952945550207
C           22.95143752872016       -0.01203892463169       -0.20867510131983
C           24.28953558997441       -0.00613600836029       -0.20792501716363
C           25.51994229764917        0.00319261421492       -0.19791837732591
C           26.86266601782358        0.00728535174207       -0.17720522247552
C           28.08678212383190        0.00417039349999       -0.15254274819075
