181
 energy: -325.326138022955 gnorm: 0.000418009461 xtb: 6.5.1 (b24c23e)
Fe          32.36668504319840       -0.02884950961302       -0.01718667688733
C           28.96846943782253        0.05469778229742       -0.08385029836404
C           29.61860548486560        0.95960769605756        0.72894409064385
C           28.94309110942038        1.91916234418622        1.54953861251422
C           29.89950391927906        2.55997809162007        2.26315590385876
C           31.15392603056887        1.98954143222777        1.87405236315803
N           30.97596263335606        1.03208849150434        0.91921658191731
C           32.37529333028821        2.34668798072260        2.45066067535607
C           32.37661963733286        3.32163398905781        3.47135250059682
C           32.37243987224263        4.16808374800808        4.34091786850000
C           32.36559530857951        5.15766011063199        5.35047862462788
C           33.55597652435387        5.61753053303420        5.92564219570363
C           33.49343748989299        6.59079473050612        6.90695477297092
N           32.34970906528849        7.11708056696118        7.33758019222336
C           31.21368345943005        6.68476356451961        6.79623910923795
C           31.16693081624548        5.71671976748333        5.80895913760707
C           33.59206570135751        1.78721303772153        2.05928495412665
C           34.84586142160566        2.13055060788991        2.65487739922545
C           35.80019500096272        1.45908155775447        1.96482878409171
N           33.77107231710183        0.90195534574593        1.03093509831114
C           35.12223920001409        0.71155788984476        0.95240863952365
C           35.78487827695770       -0.03180983069863       -0.02792362434042
C           35.11577396835928       -0.77330533743958       -1.00607932018391
C           35.78880800521007       -1.55324836296240       -1.99734215847807
C           34.82973425754710       -2.23164731329912       -2.67361852853529
C           33.57756195768491       -1.85576960550871       -2.09499588240385
N           33.76192838728209       -0.94042883194618       -1.09414508792587
C           32.35520213042849       -2.40389664826606       -2.48510219538105
C           32.35348884262371       -3.41343940454427       -3.47157809090797
C           32.35550232489725       -4.29213010605497       -4.30856859123650
C           32.35740963840677       -5.32044830543999       -5.27867650983994
C           33.55492359651669       -5.81795219263032       -5.80592136941859
C           33.50285685417786       -6.82930902157253       -6.74850584668380
N           32.36273228275027       -7.35836442072512       -7.18527591095967
C           31.22004224460425       -6.89001070035975       -6.68990776841256
C           31.16265134302616       -5.88219698520829       -5.74378500975952
C           31.13324344800786       -1.99757893127736       -1.94388397891701
C           29.87021012799247       -2.53513215491686       -2.35114753288230
C           28.91845679987411       -1.83735480037027       -1.68615115644974
C           29.60599112683334       -0.88187002472513       -0.87086426556362
N           30.96377546902690       -1.00199478481010       -1.02722040145683
H           27.88450311017078        0.07506975647327       -0.09857800941929
H           27.87443041367696        2.06249127335775        1.56900256305420
H           29.78453370762895        3.34386242345492        2.99456856150816
H           34.50935658398406        5.21617717037967        5.60392653422411
H           34.40122413729996        6.96697785372645        7.36981075945835
H           30.29920438680126        7.13541805018759        7.17105617078129
H           30.21945924488406        5.39373558840512        5.39477438805172
H           34.96432582970840        2.80307946104187        3.48919257817841
H           36.86838484648229        1.46416502709226        2.11081688997931
H           36.85740960553015       -1.57759504320860       -2.13766823151980
H           34.94436273953462       -2.92870149933036       -3.48807498694572
H           34.50564134926484       -5.41579975840913       -5.47733998929407
H           34.41632669679335       -7.23536893514855       -7.17339163574077
H           30.30884040752902       -7.34408459773842       -7.06854445252256
H           30.20994152540754       -5.53086686101509       -5.36636269977021
H           29.74708402912050       -3.33658077075078       -3.06192926585699
H           27.84624912196836       -1.94363397255334       -1.73125059480863
Fe          59.16499882012803       -0.12769290145057       -0.06592698444655
C           62.55955454736094       -0.15638185886261       -0.15706384452961
C           61.89508476165136       -1.30859963590899       -0.52337043573899
C           62.55188151923286       -2.50659424591850       -0.95226615641322
C           61.58489173138976       -3.44132793254983       -1.11561349199167
C           60.34316839424424       -2.80958715524770       -0.78557498688569
N           60.53841965152446       -1.50225629132931       -0.45166216986778
C           59.11926052380280       -3.48313051726522       -0.74310203806953
C           59.09729889543665       -4.86139955005818       -1.04581272670666
C           59.07511295653961       -6.04258378447078       -1.32340685920561
C           59.04751062392899       -7.41572131932488       -1.65839467500826
C           57.84951918804628       -8.13979820036362       -1.65374528244808
C           57.87516470177030       -9.47941116569443       -1.99854554956927
N           58.99001014714116      -10.12192656363559       -2.33732100282600
C           60.13312845993132       -9.44095733673395       -2.34300764926875
C           60.21579826627003       -8.09949274389566       -2.01475427125965
C           57.91625849781669       -2.84961386808963       -0.43036581817778
C           56.65868130613176       -3.52696521182826       -0.36879232098177
C           55.71479843626938       -2.57502329218970       -0.16583431340860
N           57.75076759120630       -1.50502655667130       -0.23232442001209
C           56.40313376925452       -1.32364699863543       -0.10426971469505
C           55.75100417066591       -0.08732257019065       -0.03309112461552
C           56.43353066460207        1.13031438588491        0.05303763466983
C           55.77629955695639        2.39578471498888        0.15326744774208
C           56.74453063215282        3.31835426842857        0.37679968624484
C           57.98652878722146        2.61040331328233        0.40238185426327
N           57.78637862782660        1.27555487313648        0.17581558842377
C           59.21326851492422        3.21149345505731        0.68661571463232
C           59.23472369275638        4.58457637088719        1.01193010156338
C           59.25625816348365        5.76303189148901        1.30094826404646
C           59.28632110932423        7.13539457153430        1.63879905451330
C           58.11336415612310        7.89753303912168        1.69005380505206
C           58.19886820125400        9.23642724468107        2.02801689547212
N           59.34896360609692        9.84347784449229        2.30956153612117
C           60.46849806097897        9.12588162503177        2.26296490788446
C           60.49186959769727        7.78171659193790        1.93634123782018
C           60.42541856695772        2.51658442378664        0.65195886034295
C           61.69481709520285        3.12519008638313        0.91378020250996
C           62.63613709483023        2.18308464455032        0.66546564579919
C           61.93608702818913        1.00175934983721        0.25951856777055
N           60.58046677545860        1.21314441904374        0.28259131428532
H           63.64320227266455       -0.16331852534730       -0.19317075569276
H           63.61629201843333       -2.60245856199652       -1.09644192564497
H           61.68528809130193       -4.47004730405253       -1.42278516214128
H           56.91871651339905       -7.65505079082334       -1.38510323033301
H           56.96058378382171      -10.06534958321074       -2.00473073218311
H           61.02327314970128       -9.99618943900018       -2.62438285617485
H           61.16766113658784       -7.58263562954284       -2.03338095291293
H           56.52959937834789       -4.59185279023031       -0.47719478141234
H           54.64733534800614       -2.69368198955889       -0.07275099417421
H           54.71090293206289        2.54102649134043        0.07437531624478
H           56.64245025850068        4.38253243393773        0.51661828233279
H           57.15558334548906        7.44260662000672        1.46823374079801
H           57.30510103594190        9.85181112600383        2.07583239911885
H           61.38871034161075        9.65275546966093        2.49840958495460
H           61.42641511519470        7.23443812548952        1.91044756369946
H           61.82957727436803        4.14591142696899        1.23415612015037
H           63.70901130339985        2.26307005494197        0.73955142944390
C           38.41207784174304       -0.08902592904181       -0.04300080883640
C           37.19079045173952       -0.05009968994800       -0.02812806695790
C           39.76016597148048       -0.15244676107298       -0.07977250663200
C           40.97848314048692       -0.23230614117295       -0.13451813995540
C           51.77876361088479       -0.14140994043308       -0.13397307880705
C           50.55925049938940       -0.21230517859159       -0.19294792425556
C           53.12526500745128       -0.09518970733672       -0.08320217581702
C           54.34755243881298       -0.07692493040240       -0.05052861051781
Fe          45.76902217737936       -0.52829326698246       -0.39049495918500
C           42.37623066561520       -0.34278677978850       -0.22081852350008
C           43.01105582008108        0.12840865680335       -1.37677776592477
C           42.31618728273082        0.64553382045103       -2.51344372258385
C           43.26324968767033        1.03685259335890       -3.40259002281506
C           44.52931702558740        0.78339285717545       -2.78885324566487
N           44.36117094346979        0.19052031793644       -1.56726945562412
C           45.74593602663604        1.23785363582045       -3.30308236397293
C           45.74798209275343        1.90538165456089       -4.54572444167431
C           45.75496555790522        2.46039804263456       -5.62502970248632
C           45.76352767229737        3.10234731892078       -6.88442796052431
C           46.95285759087096        3.57968487136110       -7.44742392881047
C           46.90725148768234        4.19632428030163       -8.68515684630775
N           45.78101069756621        4.36126492225735       -9.37408330386887
C           44.64607161202185        3.91117372063641       -8.84528850111870
C           44.58315431246724        3.28042626071357       -7.61547921338644
C           46.95449328373774        1.11188574445570       -2.61184724136331
C           48.17647958094930        1.73340368267277       -3.01519550632041
C           49.12096307585091        1.35056846861467       -2.11931714231685
N           47.14319354819325        0.36546405812447       -1.48330943195104
C           48.47470350816001        0.47202573813186       -1.19513527449338
C           49.16315761623311       -0.32238354401847       -0.27065149640807
C           48.52608072832421       -1.29109470469024        0.51654682969860
C           49.22029527057493       -2.23111722634156        1.33914850694445
C           48.27259780362636       -2.96472686170398        1.97505251226495
C           47.00702726212437       -2.44630972451736        1.55849907456035
N           47.17644142906829       -1.45024587420642        0.63507840734232
C           45.79135569785964       -2.80029838124740        2.14705573005219
C           45.78987704139049       -3.79145656153949        3.15080791379435
C           45.78557972992773       -4.65723958794145        4.00133280191155
C           45.78504120637963       -5.66812270753800        4.98949986679969
C           44.60076158940755       -6.06612891192724        5.62069736606620
C           44.65513833415730       -7.06272673110451        6.57890014361963
N           45.78532690077466       -7.66772315621948        6.93519675761576
C           46.91544117284635       -7.29463107556809        6.34031449433229
C           46.96955138819136       -6.30943746444159        5.37040442735336
C           44.58359319099068       -2.17189863369673        1.82722177980461
C           43.36256606994737       -2.37344803633036        2.54184161773483
C           42.41869322259344       -1.62587479245804        1.91636727225160
C           43.06421467217753       -0.99898836453306        0.80541419133483
N           44.39563724269561       -1.30960327012164        0.78498677321363
H           41.24330122321140        0.69315725124762       -2.60776007731478
H           43.13087873769613        1.48093536666252       -4.37604803355483
H           47.89205424938604        3.46546688806975       -6.91985855402753
H           47.81437636568101        4.57558010530922       -9.14667976553327
H           43.74642704128751        4.06243727060059       -9.43474808237997
H           43.63762702392650        2.92807211738270       -7.22140553768670
H           48.28239758398689        2.38225388352700       -3.86972509421322
H           50.16686639648855        1.61047371148183       -2.09038182976951
H           50.29316091697210       -2.31137447824813        1.40833864633319
H           48.40430942800799       -3.76779432188256        2.68222691503563
H           43.65862548428905       -5.59943539517921        5.35989749373252
H           43.75206795645489       -7.39227386997314        7.08443106013155
H           47.81859474174293       -7.80917747738677        6.65539306328469
H           47.91159285097832       -6.03616369936619        4.91065243985059
H           43.25693428645162       -3.00168468194076        3.41167240846014
H           41.37352572015209       -1.51959608884608        2.15846843575458
