272
 energy: -558.815564660469 gnorm: 0.000818294792 xtb: 6.5.1 (b24c23e)
Cu          47.14161695023005        0.04992208245679        0.01037539966547
C           43.73610011224236        0.10460588407871        0.05711688318758
C           44.37165718516887       -0.20552142272027        1.24983548329915
C           43.69711447823389       -0.53795575957085        2.47232798650284
C           44.65609902158698       -0.77543869973704        3.40070051441468
C           45.92636367945301       -0.57782696406524        2.75578176386101
N           45.72256968837503       -0.24108372211812        1.44890638927481
C           47.17237195527162       -0.72855606353357        3.36849515791195
C           47.18875313582694       -1.07282729266832        4.81165470617156
C           46.64482129742267       -0.19583422375073        5.75325536236564
C           46.66507339636490       -0.51098686901065        7.10200553687642
C           47.22863694379897       -1.71390897799621        7.49544633410566
S           47.26803819829401       -2.11446789337271        9.20159104661473
O           47.18649804829533       -0.92987462121860       10.00419005126571
O           45.84430265039781       -2.89130217071866        9.29418166082118
O           48.30955072975667       -3.05913464819147        9.48055782789288
C           47.77567938861296       -2.60420358446114        6.58569435594827
C           47.75452311670678       -2.27632502499047        5.24018601672182
C           48.40608658603246       -0.58143583008363        2.73079423626144
C           49.68342973192359       -0.67037523814468        3.38068579606766
C           50.62853382113540       -0.45980875157673        2.43020192169490
N           48.59276097888267       -0.30587982371565        1.40278829379047
C           49.93662309925904       -0.23433251762284        1.19656742650100
C           50.57085422819782        0.00849642284565       -0.03354932040054
C           49.91161328415042        0.26223194028158       -1.24818940488129
C           50.57695277003825        0.46487810757288       -2.50020384138826
C           49.61295952978843        0.69110029895511       -3.42798912818900
C           48.35095003171465        0.63690746902000       -2.74521279256733
N           48.56500407187772        0.36418435265196       -1.42075599788185
C           47.10511437580964        0.81384467103198       -3.35105099695245
C           47.09130093211682        1.14453265017249       -4.79737843505209
C           46.49044949020039        0.27747200635878       -5.71322361559766
C           46.47760491716489        0.58040232475479       -7.06486649589376
C           47.06872651493125        1.75987591961968       -7.48752984831342
S           47.04577174155968        2.15511734335660       -9.19562120037824
O           47.16815228411943        3.56927549348548       -9.40009510396943
O           48.45907272524472        1.47588622363053       -9.62057785852207
O           45.98450030634994        1.45568967060903       -9.85603423758977
C           47.66649832748637        2.64302106111499       -6.60298938332203
C           47.67716731748106        2.32781873550529       -5.25431359933269
C           45.87233628092895        0.70576495248008       -2.70343043387566
C           44.59184419421180        0.94324963191281       -3.31392077323871
C           43.65174603274556        0.74280808425632       -2.35800230659356
C           44.34850785853109        0.39199168910987       -1.15321467303929
N           45.69386049781347        0.38150405580576       -1.38972661727164
H           42.65131463199856        0.12301063933565        0.07212687505928
H           42.62606793082165       -0.58886144431570        2.58837981196476
H           44.52284660894400       -1.06949668433751        4.42934333184410
H           46.22021868058517        0.74588112832751        5.42550780736395
H           46.25746088886614        0.16678011530334        7.84149688967463
H           45.70558341600845       -3.22857181960993       10.18754062575796
H           48.21291637931493       -3.53345155259638        6.92875535097115
H           48.16888426836008       -2.96258333033061        4.51085835612515
H           49.83377330764620       -0.85508820502801        4.43195913498134
H           51.70044943594849       -0.44956704353328        2.54563770863578
H           51.64511200068181        0.42885261487045       -2.64247008752812
H           49.74063773596404        0.86573671429312       -4.48400439744254
H           46.04344178066486       -0.64558087840774       -5.36293963821318
H           46.01469292977853       -0.08438968035750       -7.78324145105928
H           48.73769509951556        1.80248988320246      -10.48485000251822
H           48.10805348527374        3.56246145946797       -6.96643276463095
H           48.12904965965779        3.01044620917950       -4.54411307004136
H           44.43984052419312        1.23774433137770       -4.33980423806135
H           42.58024575652306        0.82984198223539       -2.44445279493263
Cu          95.27598918049945        0.04181784697914       -0.01047777296058
C           98.68145405222802        0.12519282108782       -0.03461066194562
C           98.04452866235162        0.27663424711747       -1.25672582806033
C           98.71807465962912        0.42590893127872       -2.51514362875139
C           97.75829320457625        0.54232598190042       -3.46546951235772
C           96.48855242094601        0.47674020402995       -2.79348419050665
N           96.69315883529782        0.30788348415551       -1.45448764832369
C           95.24253806586712        0.55016562534165       -3.41974510587594
C           95.22603254032225        0.76502167306732       -4.88786123064681
C           95.75560228914101        1.93631393591721       -5.43484468129613
C           95.73644860773447        2.14433341301030       -6.80421702923266
C           95.18861167371229        1.16587418793952       -7.61774961276816
S           95.15199885692689        1.42677907146377       -9.35089706413808
O           95.21936826498363        2.82564616403300       -9.65458507856114
O           96.58331765722095        0.75341357512488       -9.72091852489212
O           94.12142469895433        0.64213497522943       -9.96521131738520
C           94.65582301825843       -0.00585120053959       -7.10520085122655
C           94.67554830058685       -0.20083435531201       -5.73403486939659
C           94.00979350885358        0.43854753537605       -2.77358006989600
C           92.73153903130410        0.57886976717158       -3.41217659872644
C           91.78736742500115        0.41958169873061       -2.45093907432210
N           93.82476260687470        0.20875299438831       -1.43640685472300
C           92.48071879686299        0.18849355304259       -1.21924741896765
C           91.84727163802606       -0.02797463112820        0.01601386620684
C           92.50763965825082       -0.22294730349534        1.24059537866913
C           91.84325081869100       -0.48687672153479        2.48152043545745
C           92.80804134802895       -0.61439574051527        3.42704051984006
C           94.06951199532372       -0.41905793584864        2.76983247443345
N           93.85461316902219       -0.19079499112355        1.43689492488537
C           95.31571282186988       -0.47958472381159        3.39675682771049
C           95.33252471542836       -0.70618150632376        4.86305672315975
C           95.93057731266482       -1.85297624216831        5.39106354997502
C           95.94891928296757       -2.07070261419313        6.75892311543119
C           95.36604084824047       -1.12795838412961        7.58999617702379
S           95.39804179691737       -1.39097097403694        9.32333589974333
O           95.28579144324885       -0.15152824517772       10.03588776073382
O           93.98207231759370       -2.17219499959770        9.47682326521662
O           96.45755108397810       -2.28952904483187        9.67197482161330
C           94.77058153521885        0.02178346084118        7.09688906674027
C           94.75429787330313        0.22705319842519        5.72715073805460
C           96.54749874983948       -0.34308222756613        2.75300717671100
C           97.82833324865571       -0.34705603226376        3.40706207679124
C           98.76753530590523       -0.17817098474665        2.44424337526412
C           98.06980477231946       -0.05930179407623        1.19578304192652
N           96.72454989061977       -0.15920869348929        1.41206716096219
H           99.76608823979029        0.15271365936544       -0.04198742516562
H           99.78914130341295        0.42960133787089       -2.64154860097890
H           97.89063611367565        0.65152784201150       -4.52983062699210
H           96.16830301293595        2.69446636305710       -4.77954390444737
H           96.13310285531583        3.05364883281422       -7.23799117547896
H           96.70720088141954        0.73767028394776      -10.67773796765440
H           94.23053009268205       -0.74711949054639       -7.77005001080016
H           94.27232793215289       -1.11438384252115       -5.31286327087012
H           92.57995452638953        0.78760448551140       -4.45875129162582
H           90.71507668069358        0.46046332199246       -2.55537062280338
H           90.77510167677492       -0.57075370079968        2.60192140365791
H           92.68134011464377       -0.83468671499689        4.47458780249060
H           96.37152675578893       -2.58312927989020        4.72249452199983
H           96.41013365969133       -2.95571660377595        7.17883173638411
H           93.70370829163480       -2.17643331327005       10.40080989840109
H           94.33541037619320        0.74396747654359        7.77623296147943
H           94.30444659737985        1.12567982843527        5.32138228979536
H           97.98105899009853       -0.45286092283965        4.46900139103816
H           99.83903337170763       -0.12767124312592        2.55592524199503
C           55.77453327871981       -0.02203590084641       -0.06865714955294
C           54.54700869433291       -0.01743481808829       -0.06584346810224
C           53.20122809585553       -0.01030601393600       -0.05880152656750
C           51.97823507540257       -0.00380364882503       -0.04927038375138
C           57.12020377784482       -0.02667330807395       -0.06775771165369
C           58.34343246158476       -0.02798500795762       -0.06634298657311
C           71.82330932880254       -0.03007133851716       -0.02370900237346
C           70.59500414636688       -0.02842103363174       -0.02459669012052
C           69.25079416428763       -0.02807993757232       -0.02815283375781
C           68.02691783939385       -0.02851053609125       -0.03166315077326
C           73.16753665569040       -0.03072308420605       -0.01988181805279
C           74.39141780267276       -0.03435560131850       -0.01951062252346
C           87.87112662827728       -0.07425525495065        0.02938208225756
C           86.64361991306865       -0.08030369982762        0.03093816329256
C           85.29793104000738       -0.08180789686366        0.03017972460629
C           84.07477288778674       -0.08072442112414        0.01912384756613
C           89.21693280607920       -0.06241742381600        0.03002413698745
C           90.43988614918484       -0.04884262517127        0.02665815411887
Cu          63.18587790168170       -0.02664054742470       -0.04999641607588
C           59.75026001697181       -0.02772088481343       -0.06263965054244
C           60.39519168023848        1.04195705289618        0.58245986864942
C           59.71482568582036        2.10008758871153        1.26726245356954
C           60.66859106418848        2.94119774433756        1.74123744006668
C           61.93852388352478        2.40494433110332        1.34020512321394
N           61.73956454646996        1.24330690538715        0.64416221325743
C           63.17868679915063        2.97537186401286        1.63551248305718
C           63.17520852937175        4.26836647331915        2.36366474824348
C           63.75343496287191        4.36349195174798        3.63180819976317
C           63.75166744593598        5.56713386217762        4.31732637247896
C           63.16903335561832        6.67224879136242        3.71859012297169
S           63.17467663367091        8.20201690290392        4.57543555154090
O           63.07125283500921        9.30449717372414        3.66417003025309
O           61.74572610939841        8.05889648115997        5.33462903028373
O           64.21611257056529        8.22034803546681        5.55868542856747
C           62.59326360004076        6.61088839320248        2.45987594112933
C           62.59664329489487        5.40101852645167        1.78551893368175
C           64.42143609649797        2.43109504445486        1.30491885892670
C           65.68868611317863        3.05662805423296        1.55764337626686
C           66.64643684754965        2.21701347430695        1.08895024101221
N           64.62628319171593        1.23268533060996        0.67539840577910
C           65.97120779465587        1.07956700860717        0.53998509031213
C           66.62179473638024       -0.02547815036105       -0.03789121762897
C           65.97543056086401       -1.13100219198438       -0.61972128899189
C           66.65534678761873       -2.26862411355518       -1.16260483593880
C           65.70166315979003       -3.10880326233814       -1.63844324073805
C           64.43227120348662       -2.48371060509022       -1.39569632118040
N           64.63170465236804       -1.28486429776032       -0.76524533440245
C           63.19243906998069       -3.02889883748299       -1.73551619615972
C           63.19585629242359       -4.32157996896331       -2.46423810246654
C           63.78383106994377       -4.41503115650554       -3.72804190380113
C           63.78971992463143       -5.61835071391334       -4.41407451663034
C           63.20486525670888       -6.72490844411887       -3.82018071623142
S           63.22093425164991       -8.25442030194641       -4.67727027240435
O           63.11570386450912       -9.35750102167275       -3.76696434156531
O           61.79604369219185       -8.11620436449549       -5.44527291893764
O           64.26827546187290       -8.26907990270104       -5.65432520392013
C           62.61927336911573       -6.66519331727865       -2.56590363093119
C           62.61500959250383       -5.45558057414568       -1.89106073723119
C           61.94978558386428       -2.45940042992157       -1.44917163774966
C           60.68308745131197       -2.99674778837239       -1.85881887536727
C           59.72543697374020       -2.15616633257417       -1.39171323837008
C           60.40030019287172       -1.09719864961711       -0.70278917309044
N           61.74521290943221       -1.29761910815822       -0.75501000034476
H           58.64464711571920        2.17683129609148        1.37355905348484
H           60.52852255086243        3.83808460389359        2.32255784032534
H           64.19480863464602        3.48418578889314        4.08625688077414
H           64.19727747329722        5.65219565495586        5.30042457362521
H           61.46295251650984        8.91634435552823        5.67529555106157
H           62.15777383232265        7.49757700558177        2.01652616948107
H           62.16207483691520        5.33393648414255        0.79496105047745
H           65.82447991709718        4.02052331657906        2.02063878771709
H           67.71616197831277        2.35093317317400        1.10235700068450
H           67.72519004608836       -2.40224516557945       -1.16759119155230
H           65.84146936249140       -4.07284549787194       -2.09994839563497
H           64.22709045324397       -3.53468701018357       -4.17863788641592
H           64.24308403477201       -5.70212164974438       -5.39373785485788
H           61.51928190127688       -8.97451239458481       -5.78871455201061
H           62.18231621121018       -7.55297052501714       -2.12619088666959
H           62.17280200590305       -5.38983830464631       -0.90380239931282
H           60.54776665728205       -3.89406525323375       -2.44062492178150
H           58.65604018923047       -2.23370638799395       -1.50515955542528
Cu          79.23254701245720       -0.05394319701716       -0.00684949434932
C           75.79655379200676       -0.03906895195903       -0.01713959193088
C           76.44786178169261        1.03437214591733        0.61657676048275
C           75.77259287463812        2.10340142991104        1.28894136921834
C           76.73059393899194        2.94187576831099        1.75923758930184
C           77.99797775759075        2.39209039114574        1.36945164178272
N           77.79318558751268        1.22616541190368        0.68128998007276
C           79.24067926178678        2.95273642953266        1.67055240407115
C           79.24536791100061        4.25005853455214        2.39133883383508
C           79.81185253673917        4.34573747508118        3.66465918567821
C           79.82263148796163        5.55469822981526        4.34076145943417
C           79.26434990126062        6.66432548495427        3.72746090885074
S           79.29160521439879        8.20212175695178        4.56991110396222
O           79.22913085392767        9.29751838481445        3.64641472295827
O           77.84763630446295        8.10292182883002        5.30660853138594
O           80.31789984271667        8.20416750381552        5.56892657568036
C           78.69892702975454        6.60183101508391        2.46410976201103
C           78.68927196522432        5.38669853684109        1.79928149537889
C           80.48054203905488        2.39553388751010        1.35068018212787
C           81.75143114653609        3.01004511887838        1.61174126301511
C           82.70481260253737        2.16259746139685        1.14872145203154
N           80.67851682752537        1.19520500633213        0.72294240867663
C           82.02336053338848        1.03156846821969        0.59404048466801
C           82.66793063542433       -0.07339351619870        0.01141486907849
C           82.01724015744070       -1.16981858348332       -0.58011343418557
C           82.69182599736159       -2.30616911804493       -1.13224979055385
C           81.73401024677406       -3.13985069494972       -1.61088076357116
C           80.46740728265253       -2.51214131462503       -1.36047528410315
N           80.67208673671688       -1.31748918857331       -0.72425440824895
C           79.22490817931039       -3.05408800441806       -1.69596992541087
C           79.22280572835329       -4.34455961020365       -2.42890728287101
C           79.79962954855398       -4.43277917838059       -3.69816365407210
C           79.80103104583962       -5.63378349474705       -4.38832002195138
C           79.22303997181010       -6.74315378170195       -3.79301684475274
S           79.23485792323868       -8.27026866058797       -4.65485045231746
O           79.14016189589152       -9.37599505309273       -3.74658098030830
O           77.80340661175546       -8.13359263345281       -5.40981301765733
O           80.27429035998921       -8.27896197346914       -5.64025348675043
C           78.64835565391671       -6.68841737076705       -2.53351400629211
C           78.64838345305259       -5.48110240862178       -1.85447309256785
C           77.98525232304435       -2.48351254076630       -1.40092651265167
C           76.71547843686712       -3.02011207528519       -1.80125445721244
C           75.76192382529452       -2.17656561474973       -1.33104958284402
C           76.44238723384279       -1.11650611592486       -0.64979317686268
N           77.78636593291043       -1.31947934501057       -0.70777525947618
H           74.70256291292345        2.18911441962252        1.38962950250612
H           76.59511790855358        3.84523170805928        2.33155588393206
H           80.23513653877043        3.46325315095439        4.13002551033865
H           80.26022900815651        5.64046131622565        5.32739227143949
H           77.56448884344533        8.97680157595506        5.60236271303305
H           78.28211336876460        7.49178457944395        2.00948600168905
H           78.26302052412761        5.31853853342942        0.80519694799427
H           81.89253262674818        3.97234429744576        2.07643469675589
H           83.77550476945935        2.28763266319493        1.16832379935847
H           83.76121472468320       -2.44320287956696       -1.14055305159506
H           81.86902274298731       -4.10121841386019       -2.07931037102701
H           80.23788314948163       -3.55032554995000       -4.14953166879435
H           80.24585610678633       -5.71357695551166       -5.37221815992583
H           77.51804319276155       -8.99398991424146       -5.74082732235876
H           78.21642602744402       -7.57825392487692       -2.09298646977834
H           78.21477520486562       -5.41927121407009       -0.86315979898368
H           76.57539670912810       -3.91887636177313       -2.37963708457197
H           74.69180189572648       -2.25277556884366       -1.43814267099189
