120
 energy: -217.474721324792 gnorm: 0.000429388922 xtb: 6.5.1 (b24c23e)
Cu          16.14735421757018        0.08258900734853        0.03177421202795
C           12.73103141618629        0.10996472270163        0.06637555616560
C           13.37116157030610        0.98434788073209        0.93155978069304
C           12.70630962314483        1.88490834528826        1.82939332667255
C           13.67411195198347        2.56678545882959        2.49275369393700
C           14.93452875224193        2.08713903495262        2.00269997160139
N           14.72551437713841        1.12844358175616        1.06114185336575
C           16.18845451884963        2.55111747870998        2.43161809803750
C           16.20293299442278        3.55984370785589        3.42088881079475
C           16.20655087409997        4.42430503815450        4.27247507313958
C           16.21397845901041        5.43128234491736        5.26460768839683
C           17.41315981827572        5.98464819321550        5.72865133224134
C           17.36572728821077        6.96755624384284        6.70100381368756
N           16.22861765619792        7.41903205089108        7.22441826647694
C           15.08438476997948        6.89751612603407        6.78912268578966
C           15.02242753900689        5.91168872645734        5.82051600474698
C           17.42596238034830        2.09112025067340        1.95577414740888
C           18.69829162524926        2.57762680365084        2.39889297133640
C           19.64608653652390        1.88336533232339        1.71718933421741
N           17.60953700275904        1.11775226074857        1.01696149892760
C           18.95535629696402        0.97060093202080        0.85654296279530
C           19.58622986784486        0.05698155451284       -0.00533371920154
C           18.92307192357078       -0.84594277609340       -0.85411134580623
C           19.58141363904586       -1.76808565371522       -1.73002007621765
C           18.60887519859806       -2.44972410780079       -2.38917531545007
C           17.35376540492544       -1.94602700468296       -1.91705655281544
N           17.57205749293118       -0.97433480114627       -0.98403698567017
C           16.09962140790376       -2.39177884746893       -2.36229006793655
C           16.08143207606527       -3.40841379696969       -3.34334683067335
C           16.06675354793597       -4.28364106077514       -4.18369310143771
C           16.05481591915839       -5.30418520418609       -5.16180632100807
C           17.24480275237313       -5.87155655444382       -5.63255499355504
C           17.17939256560496       -6.86793615076074       -6.59007561162501
N           16.03322434008078       -7.31973212255475       -7.09293321699580
C           14.89760880110669       -6.78500690377743       -6.65105066268438
C           14.85359983654964       -5.78511669399013       -5.69600088450854
C           14.86222612234491       -1.90755595614890       -1.90887909987971
C           13.58450521678423       -2.36907892348122       -2.37063803535716
C           12.64161190213792       -1.66859537548166       -1.69094281915048
C           13.33916712399565       -0.77571692612027       -0.81035752249796
N           14.68801582071341       -0.94197308709804       -0.96721424382615
H           11.64589743701309        0.11884258846154        0.07737755214591
H           11.63597360633697        1.97357740190900        1.92909907833636
H           13.55826639596678        3.32872063063737        3.24718259026635
H           18.36169093225799        5.64597119210725        5.32964542004057
H           18.28078032922539        7.41473788557693        7.07868157239830
H           14.17548165072619        7.28852847222611        7.23746095417206
H           14.06830297725478        5.51491554268558        5.49508667693956
H           18.83804687061523        3.35107546244049        3.13719603396837
H           20.71848661312703        1.97327598467397        1.78486052737828
H           20.65062924503290       -1.87215415191250       -1.82289468012373
H           18.72135394794199       -3.22465805234477       -3.13056181834406
H           18.20035014226917       -5.53333983718766       -5.25020329136071
H           18.08703661165662       -7.32605793060329       -6.97251403992347
H           13.98092758449597       -7.17658159172269       -7.08269641771039
H           13.90611782570235       -5.37773286428333       -5.36442422375591
H           13.44108827324553       -3.13225471080787       -3.11906140969784
H           11.56813931099574       -1.74010572516521       -1.76825279018446
Cu          29.63402613426704       -0.06983118436079       -0.05247421139295
C           33.05032215628803       -0.11278803853372       -0.06034022789175
C           32.41048406853643       -1.30387797677502       -0.36820316434529
C           33.07556186924897       -2.53580552392842       -0.68317117682098
C           32.10790054854874       -3.45553437303785       -0.92686286854108
C           30.84734815272943       -2.78988390529835       -0.76319298645005
N           31.05618297272149       -1.48988922575544       -0.42299777643435
C           29.59331989058578       -3.39686021405511       -0.93796047188231
C           29.57853441739511       -4.76345294046891       -1.29660162806669
C           29.57622515178293       -5.93823844511373       -1.60037983315966
C           29.56880026992454       -7.30594961479806       -1.95777446086592
C           28.36909343194051       -7.99206871251154       -2.18037147557869
C           28.41687427184075       -9.33027137454957       -2.52795715162743
N           29.55477888945653      -10.00689414875175       -2.66284409927139
C           30.69953479033023       -9.36194939777952       -2.45229861752200
C           30.76119162689283       -8.02514702451438       -2.10150726706448
C           28.35582531780117       -2.75290166704915       -0.78481885784047
C           27.08350448002030       -3.38382787255630       -0.97187997616787
C           26.13563702126061       -2.44226913011377       -0.72682170096841
N           28.17217630071880       -1.44701298758256       -0.43342809960074
C           26.82630558917176       -1.23420211484441       -0.38848297331349
C           26.19513199337581       -0.02503747189676       -0.04936487199431
C           26.85799691160080        1.16765354509928        0.28779494220405
C           26.19956380493380        2.39333243200390        0.62716730412833
C           27.17204952558517        3.30885762288046        0.87422178475480
C           28.42720545690486        2.64455198471667        0.68660342220888
N           28.20897847878309        1.34485964536262        0.33239764040650
C           29.68139613619503        3.25483852549514        0.84264081009735
C           29.69962874487988        4.61868145551894        1.21134463121509
C           29.71313224751477        5.78929617026950        1.53056584937948
C           29.72566275075715        7.15315213400937        1.90217886538253
C           28.53559805981711        7.85369731989254        2.13146434663648
C           28.60201248655179        9.18733196975020        2.49330936885390
N           29.74922074504224        9.84631195276827        2.63598423717353
C           30.88493666561746        9.18748638165110        2.41934580360023
C           30.92798401894630        7.85377404264936        2.05441312636830
C           30.91876830615610        2.61663582930482        0.66150039900425
C           32.19644678298494        3.24942161655280        0.82246572660966
C           33.13941083404420        2.30689165989004        0.56917789174168
C           32.44195114196552        1.09341669149063        0.25251928626663
N           31.09306329955000        1.31327566497989        0.31459287413216
H           34.13546242123600       -0.12625607658266       -0.06327588625114
H           34.14594053210079       -2.66604798867675       -0.71063366052699
H           32.22400128012944       -4.49370013020676       -1.19494800132442
H           27.41985894102890       -7.47944306787422       -2.08123742671348
H           27.50141674185549       -9.88691073507061       -2.70697540402920
H           31.60910669963020       -9.94391592882021       -2.57069712269186
H           31.71574110998797       -7.53908117146043       -1.93945593551534
H           26.94381259680664       -4.41515416676581       -1.25418131335142
H           25.06321751846577       -2.54692453887821       -0.76772548224971
H           25.13035185715459        2.52694272383686        0.66728993585614
H           27.05947946861585        4.34318696646027        1.15762341469360
H           27.57920490877126        7.35574275604892        2.02648605568450
H           27.69433159767583        9.75485245918208        2.67771096285690
H           31.80250228122500        9.75528414410104        2.54442468318314
H           31.87556072061236        7.35579652185389        1.88780984305482
H           32.33973942683151        4.28300773040693        1.09506961579698
H           34.21287782074013        2.40982675390042        0.59166991333191
C           22.21521259075573        0.03034200706742       -0.02713874812770
C           20.99387491452681        0.04358943235210       -0.01827891336514
C           23.56621485634017        0.01272620123927       -0.03675063467839
C           24.78748659082066       -0.00701661785841       -0.04493871965124
