126
 energy: -219.010636161189 gnorm: 0.000324746180 xtb: 6.5.1 (b24c23e)
C            9.71283440078788        0.09807166812416        0.03930902147204
C           10.32262018421067        1.34525435951588        0.00014279923642
C            9.67193279926739        2.61103966214523       -0.00550880660825
C           10.63409209863858        3.57895319773703       -0.07109133109490
C           11.90370828992434        2.93493496469051       -0.11703315592352
N           11.66536478459046        1.59143203542026       -0.05966442818471
C           13.16712878803611        3.53342357107854       -0.18616995202124
C           13.20002671101405        5.01249058401897       -0.27581576580763
C           13.84257391298778        5.76769308306584        0.70835473953210
C           13.87616451697517        7.14809059710662        0.62804269883699
C           13.26768156691751        7.80277025326325       -0.44711159936662
C           13.30347384180106        9.22307624240503       -0.53491553674047
N           13.33155550212886       10.37135391348102       -0.60503181220342
C           12.62418967968493        7.05193188945946       -1.43532386193278
C           12.59017068418392        5.67190904415999       -1.34572408138469
C           14.38267453854188        2.84442487161633       -0.17875604139458
C           15.67903277824875        3.48434755773900       -0.31427078976768
C           16.59923310933280        2.49986328011730       -0.25292644063805
N           14.53655980753455        1.49675116360015       -0.06320322655193
C           15.86354984345921        1.26058128460757       -0.09258025141871
C           16.50099967852997        0.00809088639402        0.02129429955822
C           15.86476315081177       -1.24376499719125        0.12311844734250
C           16.50838740943465       -2.50218176860011        0.25759824965829
C           15.54152409056975       -3.46833205671868        0.29749200291876
C           14.27662685785885       -2.82808461122340        0.18024610172190
N           14.52362459053437       -1.48403248475374        0.08920014184117
C           13.01404175052409       -3.43179063999753        0.18191479988409
C           12.98312833913320       -4.91158783275595        0.24384449703517
C           12.34084274688664       -5.56543288604233        1.29837245270673
C           12.31212992488213       -6.94701025780104        1.35846650424537
C           12.92501478356647       -7.70554583425027        0.35657382243908
C           12.89544362111546       -9.12751085291276        0.41408736448795
N           12.87186165549218      -10.27714017893662        0.46026907920234
C           13.56748707530276       -7.05665834351900       -0.70206495939734
C           13.59656055283025       -5.67471957888815       -0.75296790044960
C           11.79713651646667       -2.74311675026361        0.12866272705348
C           10.49257717113198       -3.38564114658706        0.07974842309978
C            9.57961887133882       -2.39437584258023        0.04727379182345
C           10.32516048737747       -1.14797741039185        0.06077074028605
N           11.65734391554656       -1.39687253932235        0.09950675705558
H            8.62758632612960        0.10795122454659        0.04830959346516
H            8.60357131241134        2.74945547806598        0.04057157777592
H           10.48377925700626        4.64632428064036       -0.07766935717162
H           12.38992941817199        0.88132914328462       -0.05929446928540
H           14.30475929719735        5.26442302480672        1.55000194469636
H           14.37274904055786        7.72707058629880        1.39784229937681
H           12.15494887616745        7.55549875971146       -2.27240287140114
H           12.10323125944277        5.09314093131558       -2.12256478449004
H           15.84149104324112        4.54087567664852       -0.45276212061950
H           17.67265615887528        2.57741739448640       -0.31755142379994
H           17.57568987858976       -2.64024245012827        0.32031627030496
H           15.68857930303324       -4.53001385370319        0.41026993046761
H           13.80203343124409       -0.77467892361004        0.01324949594381
H           11.87684669564165       -4.98140726536356        2.08504995530689
H           11.81667186343981       -7.44660012691532        2.18269954062271
H           14.04034178579298       -7.64086628375073       -1.48279090292558
H           14.08301385901775       -5.17609901109261       -1.58381057575871
H           10.32324884378476       -4.45013778202188        0.05910637254607
H            8.50418396960426       -2.46752016888650        0.00665676758864
C           35.03195440678597       -0.08422337290468        0.07179045015676
C           34.42239713584695       -1.29376350355959        0.37888653200381
C           35.07304207832077       -2.51111792959573        0.72578104890708
C           34.11095384184917       -3.45967754304934        0.92966020194974
C           32.84147559924698       -2.85425480609494        0.70468347326678
N           33.07975716053166       -1.54748057513487        0.38741840397678
C           31.57812949924999       -3.44893563969236        0.80178057348060
C           31.54495716108762       -4.89491979657085        1.12568150010501
C           30.90148362757849       -5.34760750388688        2.28012136869457
C           30.86719204204134       -6.69621938263968        2.58541131199941
C           31.47571264843887       -7.62336357806241        1.73402835805909
C           31.43918324963059       -9.01247433037316        2.04276159903434
N           31.41034144212504      -10.13538279984098        2.29284526398960
C           32.12017805569722       -7.17595044906078        0.57689359214518
C           32.15507669568591       -5.82513689760776        0.28074703380002
C           30.36268744447760       -2.78544366733224        0.61543378681410
C           29.06662095205518       -3.43859889920759        0.66001194002119
C           28.14626197391523       -2.47606099690983        0.44505454385979
N           30.20855791702244       -1.45857014219219        0.35292874056925
C           28.88161694975370       -1.24044176480150        0.25732198435291
C           28.24396434260501       -0.00573027664284        0.01868672895552
C           28.87998492788295        1.22511936627534       -0.23181993065706
C           28.23597136000697        2.47055056823508       -0.45574713246940
C           29.20267391367060        3.41007032046968       -0.68514402853039
C           30.46791048012231        2.76350183135789       -0.61577720303849
N           30.22117462586774        1.44726120203828       -0.32866268048338
C           31.73056458246048        3.34468787262756       -0.77859159592380
C           31.76154755840472        4.78332064046848       -1.13064735943543
C           32.40123716241821        5.70506738685623       -0.29802578591846
C           32.43033323147459        7.04882436056032       -0.62466511691381
C           31.82035117664720        7.49836388476212       -1.79962781546984
C           31.85054301333594        8.87996335124653       -2.14086824292889
N           31.87510633475145        9.99645917673353       -2.41859521598057
C           31.18024189817749        6.58026874718571       -2.63746942667455
C           31.15087306239700        5.23873228330280       -2.30197300807430
C           32.94753603496898        2.66914096785987       -0.63483252507096
C           34.25230263728547        3.27368392828963       -0.85673848887250
C           35.16522147127922        2.31282227248254       -0.61086450908232
C           34.41952034910538        1.11859083408993       -0.25409835097513
N           33.08726596684620        1.36776031340418       -0.28893523279499
H           36.11718690619073       -0.09049556743378        0.08507575879351
H           36.14131621280354       -2.63084526113135        0.81027983186287
H           34.26118260103163       -4.48690646684434        1.21975031734263
H           32.35524600924575       -0.86548650844111        0.18942255454450
H           30.43897368792475       -4.63068454692727        2.94898857354335
H           30.36991218421764       -7.03901452281835        3.48519642137097
H           32.58938418644328       -7.89197776882885       -0.08765810503098
H           32.64280767542280       -5.48437298013609       -0.62565200358710
H           28.90458219862433       -4.49231329411482        0.81889461365266
H           27.07297356168442       -2.56903930297350        0.40241145075934
H           27.16849788937598        2.61981796990355       -0.43682097937287
H           29.05519753889738        4.46083046197144       -0.87404708150705
H           30.94298394163415        0.74543469560784       -0.20179722507468
H           32.86296896360161        5.36320267762237        0.62130826461668
H           32.92393379092006        7.75815281507106        0.02927634135488
H           30.70955101376349        6.92404817364448       -3.55108073062659
H           30.66645559099246        4.52845248390229       -2.96257490205084
H           34.42185450688696        4.29082271960098       -1.17126819804511
H           36.24076087791266        2.37248102716222       -0.66756227073113
C           17.90602953343627       -0.00493867161085        0.02958610366466
C           19.13078541166603       -0.01080432698598        0.03695240113039
C           20.47292407279315       -0.00964162239959        0.04130614038503
C           21.70372709345774        0.00102323082215        0.04169599028998
C           23.04111546927672        0.00952080331393        0.04054686800589
C           24.27198787264149        0.01640598530859        0.03629079659859
C           25.61413262637454        0.01601722303682        0.02989003539498
C           26.83893592475381        0.00900138917723        0.02319248266220
