238
 energy: -429.902415370934 gnorm: 0.000903837296 xtb: 6.5.1 (b24c23e)
Co          29.50380963384182       -0.01638600352582       -0.01901293697623
C           26.13273270277994       -0.05092474236432       -0.04897051183919
C           26.80216018431217       -1.24870119598829       -0.18042144913242
C           26.15099037913482       -2.51437655760675       -0.33236442902812
C           27.11101235293781       -3.46152528744692       -0.21740792445467
C           28.34997043194553       -2.77322617076362        0.00039925948660
N           28.15576340074853       -1.41560884797868       -0.02800479293848
C           29.53209230033329       -3.39736862481565        0.37471802388963
C           29.54411090791891       -4.86983902491451        0.54050379821829
C           29.73492491813200       -5.45688610395758        1.79002075434481
C           29.73635302692408       -6.83927241476554        1.89207795548477
N           29.56742539354564       -7.64288828226889        0.84708102511087
C           29.38720266461459       -7.09008350943123       -0.34800851598057
C           29.36529967711240       -5.71903347822306       -0.55022251451753
C           30.70111648615015       -2.68655614040078        0.59703873379611
C           31.94698589972507       -3.28537472716733        0.97175471944335
C           32.89197234418314       -2.32052413966919        0.86832390442644
N           30.87849152919776       -1.35127079072478        0.31210936417989
C           32.22341556514062       -1.13813099550785        0.42526018770927
C           32.89375621137157        0.01484497746215        0.00827880294306
C           32.20586637990659        1.15627555968979       -0.41122439790755
C           32.85135983275608        2.34231411897989       -0.87754382950410
C           31.88981608533052        3.29089858192963       -0.98535731187683
C           30.66064169965659        2.68147843344987       -0.57514524613614
N           30.85837154836623        1.35003117436911       -0.28961087989637
C           29.47203730200504        3.37054185709005       -0.38415566526141
C           29.46262245117217        4.84122549327667       -0.54294575162238
C           28.63520772703225        5.46595013803841       -1.47552052384396
C           28.66762931612126        6.84680521960960       -1.58943625633965
N           29.45231509330235        7.61730240203793       -0.84290504575008
C           30.24222076488008        7.03013596147613        0.05031372513932
C           30.28471321319060        5.65716807150693        0.23388358176925
C           28.29226148081558        2.71669799232431       -0.05383989889596
C           27.04313799164488        3.37652931192011        0.19125703202675
C           26.09949441119408        2.40933193794150        0.27504976538621
C           26.77481001228131        1.15997957380902        0.09694306702329
N           28.12647459848213        1.35531144910411       -0.03891544835143
H           25.04923701972557       -0.06265756011884       -0.05559318419225
H           25.09119257012694       -2.64119994783634       -0.48608372371856
H           27.00095506004076       -4.53323235383746       -0.25167173120402
H           29.86565664449999       -4.84037271884006        2.67131427382080
H           29.87887289397070       -7.32110667178952        2.85492493097609
H           29.25460253343552       -7.77292698176483       -1.18214567772717
H           29.22608659749642       -5.31199376361751       -1.54461050630108
H           32.07446943870442       -4.31781647959039        1.25327117288142
H           33.95206290800059       -2.39169651108846        1.05107774104662
H           33.90657032389808        2.42438978710673       -1.08261263932309
H           31.99223831356361        4.31310302068835       -1.31133966764854
H           27.98871309942793        4.87730779939191       -2.11543181956334
H           28.03655452572430        7.35555944333592       -2.31219516745921
H           30.86956073790431        7.68618136109408        0.64662456296777
H           30.93618801986715        5.22320988418184        0.98297664083063
H           26.91821427181037        4.44341371870552        0.28117199329304
H           25.03815314232908        2.51230231921883        0.43576182514831
Co          85.06983641601708        0.02887380787764       -0.01100306305962
C           88.44521993588924        0.05517410519739       -0.01833983295585
C           87.78083677631548        1.16328918594654       -0.49801576451824
C           88.44045049568987        2.32891153728700       -1.00304611550881
C           87.48164730988908        3.26411439548495       -1.19676349444133
C           86.23578700775668        2.66719760835173       -0.81237939915383
N           86.42504536254619        1.36377620572046       -0.42891776888240
C           85.04742830298839        3.37144559152250       -0.67656676196462
C           85.03860050432748        4.82474287155464       -0.96626077205804
C           84.81867133103395        5.76163164726849        0.04194256227919
C           84.82083848816983        7.11015650960594       -0.27867823644004
N           85.02019710741088        7.56077915386382       -1.51304414374335
C           85.22889270597814        6.67310132658071       -2.47983461629090
C           85.24965299608205        5.30505561089580       -2.25754296099150
C           83.87034645268649        2.76054835349300       -0.27409152355796
C           82.62086216737461        3.44611524872328       -0.13280706393508
C           81.67429402035596        2.49768879399419        0.06323480906269
N           83.69278101051682        1.40335145849102       -0.12383880134923
C           82.34586717735071        1.23693642338040        0.03455082589209
C           81.67483550775555        0.01141705260342        0.02483559629750
C           82.36021173229953       -1.20583143930332        0.00197173563774
C           81.70772549393959       -2.47520683854327       -0.05827804915591
C           82.66946950466777       -3.41419394660526        0.11058072427978
C           83.90524508024781       -2.71218920079063        0.28573039900825
N           83.70983566461706       -1.35604108411994        0.15389298992738
C           85.09916658195446       -3.31784505001037        0.64651090023849
C           85.11190284682672       -4.77114538680249        0.92442999116341
C           85.91415427172042       -5.64268972039454        0.18867431055458
C           85.88848900726845       -6.99651215612950        0.48414546238582
N           85.13375673092510       -7.51342727360566        1.44840577236350
C           84.36833846525684       -6.68919501045046        2.15648702074570
C           84.32119893958696       -5.32239084820652        1.93218224002972
C           86.28288301071191       -2.60000677662592        0.75402627876911
C           87.53258171666080       -3.16572603538283        1.17098148937244
C           88.47586931025629       -2.21388978278574        0.97986249477740
C           87.79988190368971       -1.06548128811100        0.45753195031754
N           86.44822987117591       -1.29117146307838        0.37981568113395
H           89.52875629463796        0.06598697822117       -0.01488626708847
H           89.50388494446379        2.40711808120094       -1.16386937330992
H           87.59613135698268        4.27743103861163       -1.54590664766172
H           84.66252774261152        5.43985362480418        1.06467294993910
H           84.65552955290414        7.85999472798508        0.48939375479250
H           85.38623182379237        7.07233054496113       -3.47759408637162
H           85.41283908741680        4.61709824240393       -3.07845971459270
H           82.49285697685991        4.51411013753083       -0.19916453982249
H           80.61188132714078        2.62196566337541        0.19739931915584
H           80.64859839402753       -2.61234207611551       -0.20553790304308
H           82.56324033647947       -4.48667042755878        0.11862236930068
H           86.53639502144478       -5.26773325525859       -0.61516659243814
H           86.50032316605166       -7.69558515093508       -0.07843728760300
H           83.76539775381015       -7.14097715010875        2.93871659947381
H           83.69068639914855       -4.68700520490265        2.54263509835556
H           87.65750976713038       -4.16472983941591        1.55602084787972
H           89.53738535960912       -2.26717168833472        1.16211908294661
C           34.29598061634395        0.02488484491658        0.00799771321617
C           35.52098426066856        0.03371810583021        0.00799419682101
C           36.86237346200329        0.04021933684378        0.00540392647921
C           38.09381416837126        0.04570456889726       -0.00252033956178
C           39.43014580698451        0.04694388920862       -0.01104741517180
C           40.66169609158070        0.04170237314015       -0.01886354789464
C           42.00260273612719        0.03792273863919       -0.02668088675516
C           43.22807018250826        0.03271822129015       -0.02867240614078
C           52.82230906023792        0.03264513268700       -0.01828252373578
C           54.04810801539000        0.03516520418398       -0.00988676584634
C           55.38825982251901        0.03904315814044       -0.00230644695457
C           56.62035776914828        0.03959141916952       -0.00162659016792
C           57.95573454682242        0.03872873690699       -0.00004906911158
C           59.18788909240651        0.03785136349225        0.00068777447124
C           60.52799664072379        0.03440787481638       -0.00483474534650
C           61.75380908044362        0.02791810474856       -0.00496948765001
C           71.34031925910422        0.00130586176680       -0.00506220587371
C           72.56590685575415        0.00037772851065        0.00452689761657
C           73.90661947515592       -0.00139029763325        0.01536837197268
C           75.13837904401761       -0.00292793865550        0.02342172182324
C           76.47457619134495       -0.00266282230672        0.02886126228938
C           77.70624137292023       -0.00242985097864        0.03230402780581
C           79.04747468537562       -0.00038028353460        0.03178143450670
C           80.27263141739400        0.00328315922642        0.02897513273879
Co          48.02566614772222        0.02251858916959       -0.03485459877462
C           44.62899946768045        0.02480614279318       -0.03576822844375
C           45.31027832061474       -0.63894000771521        0.98918230922665
C           44.65686740219662       -1.29238908224745        2.07815452945253
C           45.61126624367326       -1.99179998244217        2.73947621687307
C           46.84192519351212       -1.76716573566764        2.04409706835397
N           46.65426069997103       -0.88276951350417        1.00805775675152
C           48.02317745076485       -2.44754316998409        2.30598999894865
C           48.02022973013759       -3.52293922621952        3.32210966151144
C           47.19800776402845       -4.64122441172745        3.18829010429436
C           47.23487908333328       -5.62647949729158        4.16227498121173
N           48.01724647491003       -5.55590827538546        5.23453043204205
C           48.80023772186205       -4.49079791184126        5.37221063812839
C           48.83974382701894       -3.45823957467152        4.44855768470160
C           49.20654195104666       -2.14922166609990        1.64625055445550
C           50.44035711926617       -2.84635165932173        1.84924619712617
C           51.39758611821404       -2.14189920301106        1.19791870846362
N           49.39586925824288       -1.07010440342323        0.81396302177955
C           50.74227621796658       -1.02767436715660        0.59023539239871
C           51.42212912937666        0.02776424402193       -0.02613693159687
C           50.74014695476318        1.07413760953702       -0.65550091168427
C           51.39287585720690        2.18739352043573       -1.26770546016602
C           50.43816943072530        2.87344352622574       -1.94223595950778
C           49.20801673248147        2.16842981807213       -1.74515126913311
N           49.39674541258456        1.10010405277441       -0.89944390537430
C           48.02748595989377        2.45306698139182       -2.41654267241539
C           48.02833232776268        3.51319691645816       -3.44860518938419
C           48.85488479748744        3.43233001660303       -4.56879633621841
C           48.81823868088133        4.44936816318422       -5.50962179987441
N           48.03169515748071        5.51451923789758       -5.39433793778383
C           47.24357160932729        5.60115836267756       -4.32760046809942
C           47.20367726098723        4.63219669417258       -3.33747547867593
C           46.84507760435765        1.77820288546446       -2.14629445674017
C           45.61285519701161        2.00251477000649       -2.83932692334598
C           44.65565379639907        1.32276967951668       -2.16189425226816
C           45.30944378042464        0.67730122056255       -1.06839875781550
N           46.65580481244253        0.90649287386977       -1.09938030675003
H           43.60197159804540       -1.22354725164840        2.28951618613087
H           45.50233633742969       -2.60793496915108        3.61702106518008
H           46.55215674808066       -4.74575404478603        2.32456762776355
H           46.60904064797932       -6.50999915047634        4.07717080450972
H           49.42490700560577       -4.46082536940585        6.26023401413918
H           49.48605557364114       -2.60324022833857        4.60744906097497
H           50.54962605823077       -3.75315374184998        2.42131422142227
H           52.45505214565025       -2.34107451424375        1.13194846059131
H           52.44740648314687        2.39745471206243       -1.18993263186102
H           50.54672246312747        3.77368797494242       -2.52480475563056
H           49.50440775936221        2.57660194031271       -4.70952961793816
H           49.44820513058976        4.40639755550837       -6.39329792986063
H           46.61517984671488        6.48442887284846       -4.26062824810157
H           46.55336400891799        4.75024781978392       -2.47890047990102
H           45.50446380135750        2.60674948161109       -3.72517519963031
H           43.59903706520608        1.26052791430912       -2.36653234550988
Co          66.54679150950676        0.00835677319293       -0.01475796041360
C           63.15382262826262        0.02018830831497       -0.01104576713748
C           63.83572381249141       -0.64338263059982        1.01447324965333
C           63.18621336167226       -1.28816272785456        2.11098508191001
C           64.14067193629270       -1.99248336498964        2.76731696321388
C           65.36720962769677       -1.78215558794691        2.05986606529787
N           65.17742497062753       -0.89670642539999        1.02454764442418
C           66.54237358756632       -2.48036502611832        2.30058160973286
C           66.54264796509391       -3.55568197081173        3.31611682324060
C           65.68862474864682       -4.65303658998644        3.21067507346695
C           65.72737225025503       -5.63504453283760        4.18789494417977
N           66.54156609156412       -5.58108146523775        5.23703204301636
C           67.35670857500766       -4.53701610319356        5.34669609354028
C           67.39639059265716       -3.50922652142700        4.41787009283097
C           67.71895983963212       -2.19594802373922        1.62065699773507
C           68.94487597794867       -2.91561540314791        1.78882366838746
C           69.90256091152935       -2.21210419173007        1.13629346735572
N           67.91136690393957       -1.10566694895821        0.80483666786124
C           69.25556265162933       -1.07475358941354        0.56381134073458
C           69.93975410892730       -0.00011568194381       -0.01397744792858
C           69.25930708017191        1.07046456588465       -0.60334750436921
C           69.91000343698380        2.20138794556146       -1.18428601809479
C           68.95758806185303        2.89428364253840       -1.85586173085760
C           67.73041629732678        2.17727952743103       -1.68655906980135
N           67.91747638229609        1.09565347719831       -0.85871501117418
C           66.55499118899932        2.45958555117405       -2.36975024299183
C           66.56037687615355        3.52284180272141       -3.39796042552057
C           67.40883843090779        3.45582353468131       -4.50270429163579
C           67.37145767150001        4.47122922764427       -5.44520056441549
N           66.56425708995674        5.52256631341831       -5.34561099724734
C           65.75639601808832        5.59699765345980       -4.29279924109544
C           65.71564961800983        4.62844484207653       -3.30237271739439
C           65.37444389969019        1.77580958665548       -2.11527634598999
C           64.14493314980894        1.99604778317930       -2.81484096367253
C           63.18578186824085        1.31480579051765       -2.14149299468077
C           63.83559514689005        0.67091982359034       -1.04463596780990
N           65.18127264358107        0.90158133338737       -1.07071916618368
H           62.13373477256623       -1.21015805454390        2.33107659272069
H           64.03358110006414       -2.60377739217329        3.64845444577087
H           65.01611765130822       -4.74457263964921        2.36606807566431
H           65.07540570737257       -6.50149969929918        4.12540060919246
H           68.00731329912672       -4.52025653808277        6.21608184998585
H           68.06884084859787       -2.67077153431716        4.55459151108698
H           69.04930360659075       -3.83584655163658        2.34006531380246
H           70.95579276575387       -2.42541132104427        1.04996048752654
H           70.96229672413388        2.41675786649993       -1.09176845613466
H           69.06609050808791        3.80669621981255       -2.41924190624277
H           68.07509399491880        2.61100002324481       -4.63119447062128
H           68.01762786264311        4.43817180353562       -6.31752766578958
H           65.11140537709431        6.46922175366228       -4.23830975888752
H           65.04857786969690        4.73659061067831       -2.45540643804514
H           64.03900979024586        2.59910078081364       -3.70177143054133
H           62.13024365936457        1.25086833209740       -2.35113070128672
