254
 energy: -463.279876130486 gnorm: 0.000379996175 xtb: 6.5.1 (b24c23e)
Co          41.05159488327739       -0.13497913293823       -0.11346635284958
C           37.66805409732791       -0.10281175134948       -0.24224682403889
C           38.29033259670041        0.57460627366980        0.78380060765213
C           37.59080837037985        1.27254073331082        1.81913374103096
C           38.52723642080488        1.92880581347636        2.54487472435184
C           39.79225063910358        1.63540077160980        1.94370304167746
N           39.64573109688882        0.77034744462491        0.89553227669466
C           40.97994552011045        2.27429287043400        2.29744013321024
C           40.95489776628516        3.25908722476509        3.30838871532462
C           40.93975094832769        4.10596656477336        4.17700623621449
C           40.92712520878874        5.09504110804237        5.18727447092734
C           42.09235873907601        5.78724027082179        5.53726294185897
C           42.02853345528180        6.74696943343560        6.53165702878115
N           40.90637185178846        7.04943342284322        7.17961328850361
C           39.79449957942433        6.39564933258404        6.85279912338838
C           39.75115812453750        5.41922842452285        5.87353809452827
C           42.19003386151919        1.98323510302921        1.67113041387937
C           43.41531038133358        2.65400989769613        1.97206235979576
C           44.39020595555590        2.00584642042125        1.28924087138633
N           42.39881022027809        0.96214869293785        0.78012313762595
C           43.75365940990510        0.94017177793506        0.58192717585993
C           44.45593060803586       -0.06199960838238       -0.08953901181407
C           43.80609374133334       -1.10164423374585       -0.75743495023612
C           44.49375551861592       -2.16736937495665       -1.41458127421759
C           43.55366685336998       -2.88500076234907       -2.07692374268665
C           42.29956354755402       -2.24878283436092       -1.82316928674780
N           42.45708327094951       -1.18103430642496       -0.97694889473682
C           41.11644259047118       -2.59579425434960       -2.47175572014408
C           41.13662728002382       -3.62896552298127       -3.43345554977288
C           41.14376821924638       -4.51521161553300       -4.26201493955803
C           41.14590176122611       -5.54544870126025       -5.23045894219992
C           42.31439284276014       -6.25022989518537       -5.54166852829995
C           42.26004129717668       -7.24842011430796       -6.49821021148143
N           41.14426452388616       -7.57697871462659       -7.14441339347715
C           40.02910718809093       -6.91156667005538       -6.85419470007961
C           39.97650982670589       -5.89735099906084       -5.91474682221896
C           39.91085944185122       -1.94585411969923       -2.20878985288795
C           38.68501005523600       -2.24918446473675       -2.88202331161333
C           37.71428226170634       -1.53768400820094       -2.26135493829195
C           38.35200165278191       -0.80817433555318       -1.20776379081503
N           39.70907179705542       -1.02794499846525       -1.21672818625685
H           36.58522166385817       -0.09165242574973       -0.28376353721912
H           36.52060376950576        1.25635060314419        1.95058709914164
H           38.39265124659502        2.57122492854459        3.40035481497306
H           43.02770151307691        5.57226965174988        5.03475279734029
H           42.91715386436033        7.29944245137939        6.82323709776847
H           38.89711044979541        6.66734137102436        7.40121274142982
H           38.82343724194305        4.91140724111898        5.63902944583579
H           43.50221845372655        3.50273398745209        2.63116696258630
H           45.44914741069532        2.20684787339031        1.26882614472531
H           45.55944438853226       -2.32500353078840       -1.37281751494845
H           43.68221360099262       -3.75759904885829       -2.69694896248919
H           43.24503964266393       -6.01516069563172       -5.03951705156979
H           43.15149542282224       -7.81134871061905       -6.75957508696422
H           39.13696519904158       -7.20514305585788       -7.39990855435235
H           39.04654399107229       -5.38105086422982       -5.70929534895688
H           38.59759024095510       -2.93042515651102       -3.71323646710487
H           36.65671142004344       -1.50904540182094       -2.47012713039839
Co          96.27311317442293       -0.19777596137494       -0.11370951032352
C           99.65454636528438       -0.32096193900458       -0.26888305448325
C           98.95294780908826       -1.50532129517889       -0.32411799342891
C           99.57112956730352       -2.79200175403002       -0.42803543786559
C           98.57352135267394       -3.68553317724514       -0.62872235246568
C           97.35215517168942       -2.94007291842672       -0.64630175433569
N           97.58594933828168       -1.61333345873097       -0.41669656936556
C           96.11699789358025       -3.49351103973807       -0.98193488421841
C           96.05670123185952       -4.85736082694239       -1.34132503824525
C           96.01153940495769       -6.02969355597883       -1.65067836945955
C           95.96398347305384       -7.39557825393598       -2.01314174401550
C           94.76238072246531       -8.00744846520048       -2.38833307968870
C           94.77227004945209       -9.34684541477746       -2.73499739810886
N           95.87497432431103      -10.09150749492653       -2.73023319269474
C           97.02134363304472       -9.51715284768711       -2.37454158921759
C           97.11928242603423       -8.18595575349761       -2.01078547106305
C           94.94408072773827       -2.74220214156129       -0.97472093969765
C           93.66492556641673       -3.27702707009071       -1.32064043607331
C           92.75313561052268       -2.31504469284246       -1.03791001782793
N           94.82873616387636       -1.45039177222367       -0.52847805714624
C           93.48250131183219       -1.19999414939878       -0.52247455121414
C           92.87161361990593       -0.06696747827451        0.01755475103860
C           93.60995356662590        1.01582821846883        0.49793378477365
C           93.01318228521916        2.18070153378969        1.07026323296409
C           94.01395733494552        3.07459031371190        1.26077911070607
C           95.21417199234256        2.44808940592392        0.80383185639747
N           94.96501750789767        1.16938641141898        0.37581850559724
C           96.43500192273713        3.11130660191933        0.70058721655296
C           96.50148675041433        4.47813549772229        1.04705797995744
C           96.55665381590887        5.65215952128610        1.34768565867732
C           96.61748919673104        7.02076549307074        1.69745257837316
C           95.48583202671232        7.70140516933739        2.16155343252861
C           95.59771118698326        9.04025087940208        2.49175673795222
N           96.73598483090426        9.72184436287219        2.39013281134611
C           97.81619728393686        9.08190311490282        1.94953484423807
C           97.81071405557731        7.74497595293025        1.59349884915178
C           97.59352975382897        2.46557887323407        0.27101829142273
C           98.86272171629383        3.11611246580782        0.15326473550045
C           99.77124586983666        2.14897492765998       -0.11670523738737
C           99.05110062629396        0.91291431666931       -0.16378708837780
N           97.70681256245101        1.12510854634320        0.02903353228479
H          100.73662653748453       -0.36205601041961       -0.31137665309447
H          100.63363548648393       -2.96542611182730       -0.36581772026121
H           98.63915888717207       -4.75282841546804       -0.76733424208714
H           93.84096492766022       -7.43805364926772       -2.40619618044211
H           93.85448096085806       -9.84719706374719       -3.03030150773447
H           97.90164367375310      -10.15348679163318       -2.38169490236856
H           98.07360680420645       -7.75834756160224       -1.72791376817482
H           93.50240348502039       -4.26756618569187       -1.71404276278334
H           91.68134871871638       -2.34572407406007       -1.14991382983603
H           91.96132166814755        2.28839710086126        1.28051492624283
H           93.95993057280486        4.07405764750431        1.66134265498261
H           94.53888390856228        7.18444490445949        2.25961943339737
H           94.73591604734695        9.59302117853550        2.85458662517827
H           98.72800743188618        9.66800082376493        1.87895192386182
H           98.71389204488905        7.26287683808528        1.23936640437909
H           99.01932184615974        4.17544615698973        0.27946998133030
H          100.83599894873784        2.24064624903638       -0.26081034767075
C           45.85985594522016       -0.03199606561937       -0.07489816261566
C           47.08350788275727       -0.00111722680320       -0.05175637335884
C           48.42588718686078        0.02433793392741       -0.02806075040926
C           49.65622892540646        0.04233191096630       -0.00567089887291
C           50.99394866448036        0.04313064990014        0.00504541569971
C           52.22475626502504        0.02815539306183        0.00484528808723
C           53.56577516617070       -0.02230826493947       -0.02215255004204
C           54.78759982365547       -0.09493688107031       -0.06854106519338
C           64.23459204732497        0.43478701105289        0.35403398675466
C           65.44034318082875        0.61543862777847        0.48521896617612
C           66.76950714568036        0.75210243040624        0.58401041706078
C           67.99956865472336        0.81525127035778        0.63107436600116
C           69.33458971755425        0.81946050443453        0.63632766235064
C           70.56535365038337        0.76519050812592        0.59715655839512
C           71.89584990814676        0.63639368695639        0.50617988279061
C           73.10331212301564        0.46188591418291        0.38244589807526
C           82.54539576753527       -0.04376606800229        0.05036066086007
C           83.76594779612455        0.03724960038913        0.11422162654041
C           85.10627539511246        0.09339559886489        0.15869268180900
C           86.33701868865684        0.10758103711163        0.17408329901616
C           87.67477579613826        0.10285433251082        0.17178225845094
C           88.90501445582493        0.07557512876532        0.15270526061441
C           90.24682591342351        0.03571522071947        0.11757894334909
C           91.46937707572320       -0.01274350994877        0.07426801448209
Co          59.55999819877120       -0.37533942276424       -0.25147344752131
C           56.18267603293260       -0.21528544074217       -0.15180624815385
C           56.85779363618916        0.43565004350144       -1.18913428206412
C           56.19126918303346        1.12077139230850       -2.25075430157367
C           57.13608038945797        1.40568514150557       -3.18164423084942
C           58.37990295853707        0.94074856593327       -2.65612083315520
N           58.20121078505796        0.34986602678822       -1.43546862327797
C           59.61166884082024        1.15029873442078       -3.28020150544440
C           59.63228183948758        1.68402481967641       -4.58570799702524
C           59.64464962869410        2.12977832852111       -5.71429363058298
C           59.65768533836837        2.65588869080482       -7.02651825796961
C           60.85922511652902        2.86327408887289       -7.71382170638722
C           60.81623380388445        3.38175574356960       -8.99589732572123
N           59.68153948163863        3.69753557191236       -9.61475232103715
C           58.53511307472785        3.50385607369064       -8.96786364305223
C           58.46853807036226        2.99012500911426       -7.68491773843126
C           60.81660911032780        0.96039903671065       -2.60484170497155
C           62.07450089776925        1.43800842090147       -3.08509918496251
C           62.96473916355701        1.26618105509133       -2.07621612685164
N           60.94356077008032        0.44917603059345       -1.33965044804040
C           62.25580980503862        0.63479030935171       -1.00878122171360
C           62.87347894871875        0.17030682647363        0.15914812433702
C           62.21747362940262       -0.69568442260792        1.04185220701358
C           62.88819611595099       -1.41293567384274        2.07956369416442
C           61.99952845919509       -2.31672843286260        2.56283828118387
C           60.77764403004473       -2.10740586423893        1.85345927395040
N           60.92038834096994       -1.11165292012994        0.92459475349671
C           59.58829061042726       -2.77620542532773        2.14454325795099
C           59.61259946666068       -3.84399437180193        3.06599664005176
C           59.63620659996738       -4.76887553359427        3.85122966980172
C           59.66202065122929       -5.83978260431898        4.77394265731879
C           58.48666525972980       -6.49719563454366        5.15540298831252
C           58.56596527977015       -7.53670163556223        6.06507148862709
N           59.71224685208689       -7.94790776240870        6.60097208202253
C           60.83399245531328       -7.32831001720007        6.24318435345330
C           60.86353177479756       -6.27866542849067        5.34223576628279
C           58.35999461481165       -2.34064174990075        1.64482509120042
C           57.10044298824769       -2.80004658653072        2.13782431602253
C           56.15274424195579       -2.00843640035011        1.57616809139150
C           56.83700377715095       -1.10776025742396        0.70421679419294
N           58.18709945700174       -1.31934600774913        0.74931502502250
H           55.13271968771980        1.32253783755141       -2.28044080049537
H           57.01993924903783        1.90620567075461       -4.12942142894248
H           61.80570157372966        2.61992075206623       -7.24644649426068
H           61.73274789350538        3.55248898667149       -9.55321197995695
H           57.62868631165230        3.77280442322827       -9.50246062758604
H           57.51326378182971        2.84847172003702       -7.19411760502222
H           62.23263355697123        1.87628282232109       -4.05731670815426
H           64.01276299295294        1.51758015695301       -2.05180023633938
H           63.91472894516381       -1.25537403418470        2.36865152407069
H           62.13706034274617       -3.04667712523607        3.34424018243066
H           57.53189510921229       -6.19366750910015        4.74339630584862
H           57.67026662222204       -8.06444983253092        6.37959574182775
H           61.75083025758174       -7.68964172590359        6.69989993022906
H           61.79961244537235       -5.80137254785887        5.07873806077418
H           56.97565182587790       -3.60296311599345        2.84635550092666
H           55.08378687268273       -2.03525296137275        1.71314343667445
Co          77.77949572822490       -0.35469126083507       -0.18984352532424
C           74.46568507419134        0.19773635017547        0.19596897569929
C           75.11005844461936        0.72617123886780       -0.92912846499583
C           74.42689259701704        1.43596548528374       -1.96375262300281
C           75.31756377414159        1.60209770669800       -2.97335654833221
C           76.55243272902233        1.04182429115137       -2.52452275211715
N           76.41340007310731        0.50146531434204       -1.27384950325518
C           77.75113056923084        1.14569390153982       -3.23059456978117
C           77.73035828140497        1.66646414896096       -4.54128118025006
C           77.71010591631617        2.10051851295048       -5.67432097258664
C           77.68722220114942        2.61358551172029       -6.99156138231242
C           78.86212507228201        2.73833279533210       -7.74203494760950
C           78.78546185751509        3.24788405334869       -9.02610504107195
N           77.64229769032244        3.62985989354099       -9.58959475967028
C           76.52110124153684        3.51480476338306       -8.88255540496545
C           76.48895298287437        3.01726776687229       -7.59191058139958
C           78.98098802049188        0.86600704603241       -2.63196095761103
C           80.23762327660309        1.24829174257721       -3.19311118788458
C           81.17849862006719        0.98405031913302       -2.25216538204894
N           79.15019020122092        0.32788755452510       -1.38492078929982
C           80.49554683881588        0.39049017135767       -1.14697946996715
C           81.15268030405058       -0.17719717833787       -0.05010320742530
C           80.48547298608540       -1.01001838944732        0.85426874995066
C           81.15868696629560       -1.84293254586996        1.79942625135544
C           80.21480770146262       -2.64804229471752        2.34838820543773
C           78.96526558385028       -2.26172670727318        1.77460767646668
N           79.14128074471812       -1.26410657868414        0.85483116462363
C           77.73227607805278       -2.76234442406658        2.19775406280493
C           77.70876674430531       -3.83752815009057        3.11044144993974
C           77.69062707301343       -4.77024737931834        3.88650952715204
C           77.67148214444320       -5.85063491860514        4.79822873156512
C           76.46580603804205       -6.36595470140784        5.28803656398316
C           76.50281997520987       -7.42199075828724        6.18123216618962
N           77.63555001363426       -7.97814471555185        6.60292198774498
C           78.78589543423844       -7.49402513566398        6.14185319706788
C           78.85846841822546       -6.44165834299881        5.24655589674909
C           76.53141049037596       -2.14886740227435        1.84164031156601
C           75.28353558733656       -2.42264130357172        2.48074441586350
C           74.39573436112569       -1.51572820012151        2.00181849588051
C           75.09468219827313       -0.73181942206314        1.03340594746956
N           76.40177962374291       -1.12031219067475        0.94612188812178
H           73.39239013381878        1.73619978285554       -1.92101780233907
H           75.17380604915802        2.08302396188310       -3.92748960430461
H           79.81435745125873        2.43931865115356       -7.32096432643694
H           79.68074648639055        3.35549187692198       -9.63158406415011
H           75.60688840260362        3.83622473862213       -9.37311804259453
H           75.55339712457524        2.94073055079495       -7.05119124920659
H           80.36430744397167        1.68949969808156       -4.16859244956003
H           82.24328092255548        1.14581859617603       -2.29921698770433
H           82.22009108921348       -1.82310358589662        1.98692771156136
H           80.33499065186568       -3.41679800092737        3.09461260260842
H           75.52077306812235       -5.94198271551812        4.97080769238191
H           75.58298290008645       -7.84195190138698        6.57779994363932
H           79.69058229103248       -7.97139867646618        6.50705160022203
H           79.81679707455898       -6.07766910492160        4.89642681228406
H           75.12983386210421       -3.19151070774729        3.22069246124741
H           73.35436497059045       -1.39432287095383        2.25273853769115
