398
 energy: -691.101269974048 gnorm: 0.000577039915 xtb: 6.5.1 (b24c23e)
C           67.96153438062082       -0.04242798047467       -0.01112926953778
C           68.58000542388237       -1.28539149473511       -0.05803040465734
C           67.96002334876744       -2.56684993871650       -0.11179537647927
C           68.94774126407005       -3.51067276154713       -0.14483860469680
C           70.20206422528186       -2.83598025341380       -0.11230422129668
N           69.92902826613607       -1.49961657899713       -0.06059439250578
C           71.46811614963023       -3.40962230281873       -0.12882002282361
C           72.69095641584695       -2.75489534054460       -0.09803744321827
C           73.96617092484922       -3.44936492660798       -0.11990286189598
C           74.92018219401889       -2.49616757111162       -0.08071193656217
N           72.89040488927816       -1.40961283326284       -0.04590960424210
C           74.22388532649676       -1.22286338092277       -0.03486093362442
C           74.88460993659154        0.02252627942481        0.01268409438823
C           74.24048077913815        1.27348830714868        0.05954939039033
C           74.85516056355492        2.55369153127245        0.11066204944148
C           73.86360474908876        3.49520330428160        0.14584218298635
C           72.61353946424329        2.81613110565517        0.11696700897720
N           72.89384685783385        1.47731541396692        0.06533259889633
C           71.34862499166069        3.39048362896173        0.13609254222652
C           70.12492171254922        2.73325706359639        0.10642079126397
C           68.84333626281420        3.42146618730790        0.12880700354304
C           67.89542939824898        2.46369108309328        0.08768346818663
C           68.59879152530345        1.19167692637921        0.04024178792908
N           69.93793952730785        1.39358985201442        0.05314991321654
H           66.87668778490965       -0.04445274064044       -0.01551432501834
H           66.89401300471101       -2.72982860407465       -0.12314469858031
H           68.83187444367834       -4.58205701369297       -0.18808133329510
H           70.62687008269981       -0.76401548944573       -0.02835919860103
H           71.49393742247490       -4.49385266166707       -0.17103541650142
H           74.08185974373768       -4.52113716152094       -0.16010282022487
H           75.99234824203107       -2.61248369096492       -0.08152245661720
H           75.92045997773583        2.72022366047384        0.11914673724599
H           73.97636637387903        4.56682278344323        0.18802532508867
H           72.19854889560331        0.73889315398828        0.03509084302738
H           71.32406102204797        4.47465694157833        0.17838973219299
H           68.72206034739695        4.49273767518917        0.17032426190840
H           66.82205332000139        2.57264508221229        0.08798933314237
C          197.18952810134948        0.04368864359838       -0.00548254459639
C          196.57299730752820        1.27509151461839       -0.18762598925709
C          197.19547947429444        2.54281001737564       -0.37434278303513
C          196.20962984095308        3.47914931997954       -0.51164431722436
C          194.95398068424396        2.81337697817759       -0.41328533667649
N          195.22439331252042        1.48960353539147       -0.21908824882536
C          193.68892518915945        3.38351987889989       -0.49582269841997
C          192.46514332056267        2.73672182443948       -0.40089063919179
C          191.19074940755971        3.42585182685804       -0.50090928310241
C          190.23560336848340        2.48267629752369       -0.36526476698955
N          192.26408665462120        1.40456485169852       -0.20804661948973
C          190.93036226106915        1.22081184925849       -0.18279515107432
C          190.26820207052799       -0.01244966472101       -0.00845715826166
C          190.91045109830054       -1.25218486455149        0.17188523245181
C          190.29328619596430       -2.51916032038358        0.35442397688380
C          191.28295278071533       -3.45285277853765        0.49442411776734
C          192.53430698810504       -2.78204096190609        0.40110867976088
N          192.25664338736379       -1.45582504118848        0.20660388713646
C          193.79819378547700       -3.35225680989008        0.48896481259708
C          195.02283163153825       -2.70259596399031        0.39707392334535
C          196.30362012766275       -3.38479658467239        0.50081594796878
C          197.25263009817729       -2.43726354745030        0.36249390163398
C          196.55071862444257       -1.17746684794314        0.17465435053585
N          195.21135913641837       -1.37637765152002        0.20158068913991
H          198.27439128164653        0.04449063831899       -0.00485472658169
H          198.26183763585055        2.70214885826393       -0.39814152047426
H          196.32760635958590        4.53976773840929       -0.66762482561823
H          194.52471825552425        0.76293769035944       -0.11178193968483
H          193.66477595833246        4.45721438665397       -0.65265355965894
H          191.07631135759880        4.48748862481702       -0.65435977725921
H          189.16357753092828        2.59898653920985       -0.38261796669794
H          189.22765220603486       -2.68249022739175        0.37463625114849
H          191.16807061408582       -4.51387878924495        0.64897074642209
H          192.95386672313785       -0.72598478680724        0.10263862104748
H          193.82095153226115       -4.42579006732148        0.64653286634031
H          196.42372134918796       -4.44541072744737        0.65810533790582
H          198.32589352172627       -2.54586203812664        0.38087544009158
C           77.51153577872650        0.03733278952584        0.01115807524502
C           76.28898847607294        0.02979382082923        0.01283505837785
C           78.86048750542757        0.04196021544271        0.00791412238552
C           80.08319676463874        0.04295131904680        0.00369058428721
C           91.10412377367305        0.02015903041436       -0.00380159238386
C           89.88114846276608        0.02296463270425       -0.00529376590778
C           92.45258903834113        0.02126492148495       -0.00327162918246
C           93.67556616376824        0.01963242038863       -0.00102923747874
C          104.70002921476899        0.00488726670676        0.00303131761943
C          103.47690946500644        0.00509162097589        0.00047427166360
C          106.04860790510682        0.00777711626668        0.00573737331412
C          107.27169402923514        0.00809697578265        0.00716267420428
C          118.30110133534031       -0.00201071267064       -0.00436560874316
C          117.07801364292908       -0.00138355694006       -0.00246726247651
C          119.64972540475776       -0.00017342299386       -0.00624624931662
C          120.87281853845464       -0.00070883011774       -0.00733317678929
C          131.90343711124956       -0.00442514040714        0.00148502397096
C          130.68033354932612       -0.00447033413464        0.00049210986448
C          133.25209093827462       -0.00090855242499        0.00222216959501
C          134.47519471182764       -0.00004915963065        0.00266146263050
C          145.50648077701408       -0.00622322562155        0.00780517970416
C          144.28340150964175       -0.00056816740026        0.00956431756805
C          146.85510861454765       -0.00446475987177        0.00753247759271
C          148.07819776165576       -0.00319569532942        0.00474574759178
C          159.10554716604059        0.00606903799860       -0.01966800320303
C          157.88250385941129        0.00331634793580       -0.01445736084602
C          160.45403315959541        0.00967740372918       -0.02390809631510
C          161.67705729366355        0.00440882614899       -0.02718599150534
C          172.70027559800880       -0.02586103103900        0.03671341828454
C          171.47732800869088       -0.02091993926221        0.02722348726769
C          174.04873371414334       -0.02797026012023        0.04055665229033
C          175.27166295261094       -0.03440584469561        0.04382581242024
C          186.29227859002583       -0.03187730890874       -0.01638854940489
C          185.06961240649804       -0.03488336475601       -0.01639947798261
C          187.64125615870006       -0.02623544456601       -0.01503476535187
C          188.86377876696997       -0.01896543556577       -0.01271212411624
C           81.48668235814185        0.04429613748845       -0.00016851901024
C           82.12786043377156        1.29841973148558       -0.00526151372733
C           81.51493042550783        2.57911327351503       -0.00839263363991
C           82.50910367898776        3.51989639340486       -0.01530727985171
C           83.75679786100847        2.83820704913266       -0.01629695151390
N           83.47497080961227        1.49961165625463       -0.01000803299391
C           85.02277309660201        3.41473038845495       -0.02213297542349
C           86.25234877098556        2.77458393921756       -0.02105642010456
C           87.51862863503183        3.48547817624977       -0.02589410359202
C           88.48497325848886        2.54375332843104       -0.02097043114435
N           86.46936116775923        1.43071782908654       -0.01412322429771
C           87.80501475387415        1.26152678428743       -0.01377418411610
C           88.47805607468717        0.02160015852451       -0.00738838450149
C           87.83672836466110       -1.23260578365644       -0.00261394033577
C           88.44958174947688       -2.51348125826740        0.00194194263715
C           87.45537597965323       -3.45406866517778        0.00395045551784
C           86.20758525143296       -2.77229140579088        0.00110161983565
N           86.48971497455827       -1.43353136075485       -0.00277258772867
C           84.94185804797105       -3.34865472365499        0.00247337998970
C           83.71200285007684       -2.70840314825199        0.00149281562331
C           82.44576419618086       -3.41938434701320        0.00473334402963
C           81.47937541458042       -2.47772321562635        0.00432004441557
C           82.15923851766138       -1.19548904862654        0.00053735109596
N           83.49528776539253       -1.36481607334141       -0.00126997702060
H           80.44995220224111        2.74764910455251       -0.00588105982991
H           82.39804340001582        4.59250620152043       -0.01929976663486
H           84.16607013234344        0.75659485769332       -0.00924363542136
H           85.03936562936674        4.50019948151853       -0.02741096039516
H           87.62067240390098        4.55938491376516       -0.03199588786520
H           89.55563937529956        2.67341982729761       -0.02222286017551
H           89.51451184424556       -2.68214670415703        0.00320601889854
H           87.56622845238344       -4.52669353115948        0.00719547736933
H           85.79870575775952       -0.69044648223084       -0.00557974953690
H           84.92508255366262       -4.43412594064691        0.00529173230885
H           82.34376807035378       -4.49329319285464        0.00722577561457
H           80.40875292163177       -2.60743020772790        0.00628331336223
C           95.07862650684773        0.02171688492106        0.00046098133347
C           95.71960104949228        1.27612709436217       -0.01312757398856
C           95.10676965188425        2.55678984661858       -0.02723252502575
C           96.10109222064168        3.49734731648755       -0.03738618404697
C           97.34878268553473        2.81558144494005       -0.02995028311940
N           97.06668709095217        1.47703551547172       -0.01520608518131
C           98.61464467166215        3.39222291128762       -0.03684784575282
C           99.84489978118430        2.75321808507599       -0.03051948204141
C          101.11032324288961        3.46559911228215       -0.03943527003050
C          102.07786913907123        2.52512298791213       -0.02924130511880
N          100.06359492402271        1.40974477661524       -0.01535696612334
C          101.39956412586513        1.24215748143083       -0.01404371199710
C          102.07377764148278        0.00288702852072        0.00044802601275
C          101.43258834535594       -1.25143059836257        0.01506911324185
C          102.04532400603286       -2.53219134039620        0.03009406379276
C          101.05098075967615       -3.47265725581522        0.04169779898956
C           99.80327546020764       -2.79086164761846        0.03391486326806
N          100.08551785741426       -1.45225185649329        0.01774943338021
C           98.53755592255060       -3.36757064537559        0.04130072218538
C           97.30714799356096       -2.72866389282725        0.03359854633021
C           96.04169667053864       -3.44094467662854        0.04185675394361
C           95.07422501179532       -2.50037287791987        0.03002918954129
C           95.75265789502484       -1.21753305229966        0.01496227355353
N           97.08867611949337       -1.38526155274202        0.01739964231286
H           94.04184512261845        2.72549712140772       -0.02914341192380
H           95.99017176017031        4.56990354292057       -0.04908237873337
H           97.75748568175185        0.73377790315631       -0.00699281377794
H           98.63069430278350        4.47766148845921       -0.04887306227187
H          101.21103190127540        4.53957289294020       -0.05182430361438
H          103.14836701290146        2.65613553215987       -0.03141733754463
H          103.11024054618424       -2.70093321297040        0.03171160764188
H          101.16179202435926       -4.54521431909055        0.05451281079348
H           99.39464172135192       -0.70906582203042        0.00904006500474
H           98.52153860702066       -4.45299861190437        0.05456164167740
H           95.94080506582596       -4.51489432003249        0.05485971369412
H           94.00370442667554       -2.63124147630614        0.03121031827588
C          108.67480382146995        0.01103271445030        0.00802550409962
C          109.31561145191263        1.26552737413161       -0.00925161387875
C          108.70326306793562        2.54637750626109       -0.02582372523063
C          109.69798693549957        3.48647839592816       -0.03831452471428
C          110.94552372723780        2.80429977054852       -0.02997855292396
N          110.66282826910668        1.46593604891953       -0.01223921164497
C          112.21127565780132        3.38119111207307       -0.03882453634725
C          113.44235400087690        2.74362806645510       -0.03255854513077
C          114.70680186205009        3.45776475234188       -0.04428463999451
C          115.67575606409132        2.51870511626810       -0.03395473088386
N          113.66307103156481        1.40056765636496       -0.01540178215135
C          114.99935780164127        1.23483354614589       -0.01574753188956
C          115.67482750221498       -0.00376059685877       -0.00017104586412
C          115.03377142561941       -1.25816239352118        0.01881175709990
C          115.64611543531926       -2.53901778404404        0.03672935488704
C          114.65142283367423       -3.47907073818903        0.05282724359395
C          113.40387313507411       -2.79691555117804        0.04504273449965
N          113.68656912586421       -1.45854239583838        0.02429589774722
C          112.13820311897516       -3.37383578623741        0.05641056035907
C          110.90710378064934       -2.73628359799586        0.04861010432273
C          109.64262808827026       -3.45032694466982        0.06118916866684
C          108.67374521873016       -2.51123690927077        0.04716438176575
C          109.35026983492128       -1.22748411704503        0.02647426947782
N          110.68654461698742       -1.39328665247501        0.02796128149892
H          107.63840521876627        2.71554790572275       -0.02765637912652
H          109.58752164530236        4.55906019733414       -0.05220020950808
H          111.35275465740935        0.72184961235890       -0.00288066274080
H          112.22653159040867        4.46663945687453       -0.05287224186380
H          114.80599627733525        4.53185840169440       -0.05854402463643
H          116.74606419498143        2.65123229199944       -0.03781957133312
H          116.71096751009760       -2.70818629033690        0.03722232250156
H          114.76187958642528       -4.55162280856122        0.06873441919575
H          112.99666631970457       -0.71442738495659        0.01474668330845
H          112.12291936944212       -4.45924178474204        0.07315902760174
H          109.54335804401401       -4.52436911545891        0.07829062631776
H          107.60342200237470       -2.64367438933947        0.05034401808400
C          122.27600289504743        0.00267955686478       -0.00748879181907
C          122.91636749555173        1.25752980524751       -0.01773712028269
C          122.30349830331464        2.53818583687348       -0.02977453700506
C          123.29781365499609        3.47876386240705       -0.03730685900255
C          124.54565637747430        2.79712979863214       -0.02979627773503
N          124.26350275921315        1.45855337256204       -0.01817033175485
C          125.81115206388549        3.37462684708823       -0.03312968411150
C          127.04263456095879        2.73779286675107       -0.02572127843061
C          128.30658551982819        3.45292460258167       -0.02981898592088
C          129.27621517473290        2.51455232700625       -0.02055814009306
N          127.26431420644079        1.39485934813921       -0.01422732581263
C          128.60074901722291        1.23011186300372       -0.01105301311326
C          129.27711668016627       -0.00806151613608       -0.00086557309293
C          128.63670573174022       -1.26291307498126        0.00757492856864
C          129.24953007864613       -2.54362091437083        0.01678187590560
C          128.25518520801893       -3.48418060120330        0.02226514198541
C          127.00735360384476       -2.80249757318458        0.01665207356638
N          127.28955730058347       -1.46390046198098        0.00784600704838
C          125.74188201824037       -3.38005016770097        0.01941494140784
C          124.51035887847794       -2.74326330189594        0.01407804460726
C          123.24638534687571       -3.45834744441086        0.01807879566006
C          122.27678571123111       -2.51991887169748        0.01105120876449
C          122.95231019259978       -1.23550799939425        0.00249359015092
N          124.28872934280527       -1.40030355144369        0.00466058802315
H          121.23857758426189        2.70690333390117       -0.03242003550248
H          123.18684453180167        4.55133776967448       -0.04719470859145
H          124.95373961193359        0.71472524451916       -0.01087888718520
H          125.82592367290398        4.46013499567659       -0.04265656828609
H          128.40496957537474        4.52715001246780       -0.03858266154751
H          130.34643154042431        2.64787083150536       -0.02007110727258
H          130.31444991723808       -2.71236601847898        0.01872581808186
H          128.36609162937668       -4.55678262444960        0.02949701610011
H          126.59933113659838       -0.72004099219041        0.00232284045926
H          125.72718043087660       -4.46557805858958        0.02674996067305
H          123.14793231906127       -4.53258025057949        0.02524354438234
H          121.20656249962354       -2.65318215604197        0.01113265534859
C          135.87840007021390        0.00393055538957        0.00351971331985
C          136.51848051093251        1.25894667889021       -0.00258623330228
C          135.90532159082784        2.53953685473878       -0.00810667786624
C          136.89941273058355        3.48034141121234       -0.01229130187979
C          138.14746969829838        2.79897634304857       -0.00942199189805
N          137.86558219734908        1.46028315087645       -0.00354020746863
C          139.41265787843520        3.37708011794062       -0.01161976848023
C          140.64459907426908        2.74098228083004       -0.00730982348454
C          141.90814691217400        3.45688177257268       -0.00922193317680
C          142.87833793288294        2.51902601356596       -0.00340868269345
N          140.86702521456232        1.39824277992954       -0.00032723151655
C          142.20362529409960        1.23421702833142        0.00214922823718
C          142.88021334682955       -0.00376196691039        0.00975230801552
C          142.23997771580744       -1.25874675117193        0.01754113649115
C          142.85327173022182       -2.53920862191787        0.02714659754748
C          141.85925403007852       -3.48012308228813        0.03201027454542
C          140.61121776215330       -2.79888288540099        0.02542366952697
N          140.89292996409299       -1.46018126233111        0.01692927017027
C          139.34598557310233       -3.37702330471066        0.02734163973201
C          138.11413007379096       -2.74097237709821        0.02190156369330
C          136.85053612154655       -3.45671849605867        0.02577878842607
C          135.88042834393440       -2.51880875273994        0.01910331200067
C          136.55527023765208       -1.23401964879507        0.01112734950190
N          137.89174011563708       -1.39808812025233        0.01297405189107
H          134.84035791038482        2.70801699138019       -0.00845775317277
H          136.78823316137036        4.55293627686491       -0.01667920968949
H          138.55592564789930        0.71652019782926       -0.00029264833512
H          139.42681041204864        4.46262953966647       -0.01691661756672
H          142.00592370499371        4.53119273396873       -0.01418595171116
H          143.94848370836371        2.65300612422925       -0.00238826790367
H          143.91825000910671       -2.70750836245779        0.03015206873806
H          141.97057736732356       -4.55267532778115        0.03957058369038
H          140.20248505808610       -0.71653289894986        0.01097046733978
H          139.33193344612451       -4.46256872917565        0.03433587374093
H          136.75267269264370       -4.53101181156571        0.03294563461527
H          134.81027828988107       -2.65267187747917        0.01953448785233
C          149.48139947809898        0.00080271580168        0.00289046182045
C          150.12027188991428        1.25628505718866       -0.01849763902516
C          149.50518519963313        2.53582956487894       -0.03743542435333
C          150.49781813978987        3.47803411555864       -0.05353045180189
C          151.74680182483900        2.79856366621725       -0.04492044717541
N          151.46702561130903        1.45956271731305       -0.02381842594509
C          153.01123592400103        3.37819173043871       -0.05527717389752
C          154.24341327399878        2.74276854256284       -0.04734569742787
C          155.50686662443974        3.45860125918803       -0.05986356453271
C          156.47705018827011        2.52082213399420       -0.04824301816566
N          154.46581298550134        1.40004969752914       -0.02793405354416
C          155.80229096782901        1.23611667019263       -0.02801392656734
C          156.47943131262926       -0.00143721316786       -0.00937731433202
C          155.84085525515175       -1.25694207025318        0.01582347698221
C          156.45614180716018       -2.53627216531671        0.04064069234184
C          155.46362585680615       -3.47854669384403        0.06143630865804
C          154.21455679337785       -2.79927409242751        0.04941712903585
N          154.49415598751605       -1.46036358330897        0.02219881832399
C          152.94996608678252       -3.37861312715234        0.06177061733309
C          151.71785972343949       -2.74309192167915        0.05049846808216
C          150.45448344642119       -3.45903178786015        0.06514317007116
C          149.48415013334284       -2.52147724843663        0.04847019385328
C          150.15864985355910       -1.23671953694431        0.02385241960068
N          151.49518667513365       -1.40046641285560        0.02551710100707
H          148.43996937602711        2.70265539560499       -0.03816827455767
H          150.38507624186687        4.55033804469233       -0.06985993029610
H          152.15874633058726        0.71716951740178       -0.01331549081211
H          153.02435887463898        4.46362400604800       -0.07165971745135
H          155.60468675009170        4.53280291896784       -0.07514829380031
H          157.54719274571411        2.65473258313462       -0.05188950998270
H          157.52140183916239       -2.70290569810833        0.04263678726891
H          155.57665276205569       -4.55072307836385        0.08340731100059
H          153.80202260465859       -0.71842120396623        0.00855132729499
H          152.93664658061800       -4.46396773665198        0.08284291926424
H          150.35689727847529       -4.53317894843840        0.08537796078822
H          148.41404286009143       -2.65561691846636        0.05223337053226
C          163.08015497701976        0.00540963534776       -0.02740667350887
C          163.72249498437381        1.25903407037696       -0.04846091721409
C          163.11103618030532        2.54020322292934       -0.07482306218445
C          164.10632821541992        3.47962246010130       -0.09047991283775
C          165.35334062251221        2.79673817334228       -0.07324080535340
N          165.06976199027099        1.45854688951756       -0.04842293817302
C          166.61969692304575        3.37210823552733       -0.07820457650794
C          167.84931463767867        2.73198484971938       -0.05704688190254
C          169.11559561503418        3.44280911831529       -0.06043739212250
C          170.08187697621005        2.50132894330647       -0.03306923995541
N          168.06615419451683        1.38849396730375       -0.02871754569530
C          169.40190881188198        1.21935734193366       -0.01386972582398
C          170.07430204441533       -0.02052057364487        0.01574857506244
C          169.43185238018245       -1.27414112705015        0.03208756158381
C          170.04343213096953       -2.55520739667696        0.05912005223134
C          169.04828507033238       -3.49489789831822        0.06457806951160
C          167.80132107772639       -2.81216258220186        0.04153943266756
N          168.08465253507413       -1.47393197147867        0.02249992293861
C          166.53499385973100       -3.38777269280683        0.03998824251239
C          165.30552148691459       -2.74749863610472        0.02226076793911
C          164.03919342107517       -3.45827648250472        0.02709478617582
C          163.07291166135758       -2.51659555742040        0.01008173524213
C          163.75292697785088       -1.23453753336079       -0.00632617213841
N          165.08864582817537       -1.40380758997897        0.00112527204486
H          162.04629266043531        2.70995447468962       -0.08110608872991
H          163.99653679650856        4.55215094998597       -0.11167423770729
H          165.75991620729823        0.71482500172050       -0.03198069292314
H          166.63692741194382        4.45738580377558       -0.09967370735957
H          169.21777530420431        4.51652675015746       -0.08073284639011
H          171.15250586790651        2.63108231739905       -0.02604120893115
H          171.10814340536692       -2.72471206111161        0.07231940431690
H          169.15810122161699       -4.56746830187460        0.08320305462355
H          167.39461299868867       -0.73016589967956        0.00354467016402
H          166.51785870072143       -4.47312911763759        0.05645888769075
H          163.93704562291776       -4.53207758829883        0.04226849930705
H          162.00224045745657       -2.64621808318613        0.00785336134791
C          176.67474446612999       -0.03144955822418        0.03848746863513
C          177.31316926105930        1.22286194317862       -0.02080574116597
C          176.69725330009075        2.50124666366353       -0.07270923553546
C          177.68912943415620        3.44287765811910       -0.12389637137483
C          178.93848434498690        2.76423002973805       -0.10491015480795
N          178.65960045118200        1.42626767123163       -0.04135324932571
C          180.20283197311926        3.34210713809219       -0.14527962902479
C          181.43397860160727        2.70453320710736       -0.12920216554006
C          182.69845974825543        3.41703855899276       -0.17660513882719
C          183.66700422402280        2.47831954642244       -0.13997799391730
N          181.65379232652634        1.36290134773157       -0.06661740571072
C          182.99018509490222        1.19633553261811       -0.07050899846284
C          183.66610988358894       -0.04022135894165       -0.01223136153455
C          183.02840188892819       -1.29443913338521        0.05279488692331
C          183.64413550154413       -2.57250619225569        0.10973962377559
C          182.65203291763086       -3.51419239176153        0.16018503107107
C          181.40283435938804       -2.83570251880505        0.13556964977964
N          181.68171814270187       -1.49808545855056        0.07015855499498
C          180.13809800333922       -3.41392310339410        0.17111954197489
C          178.90705601836802       -2.77693384476452        0.14930951809694
C          177.64247682263934       -3.48976284587340        0.18975830145780
C          176.67386310226354       -2.55107705688130        0.15236124248784
C          177.35073008725269       -1.26871715627931        0.08973509721972
N          178.68676806798717       -1.43491999086425        0.08917142114909
H          175.63195597919511        2.66758754144606       -0.07068375443860
H          177.57569771942195        4.51419572314401       -0.17113120041126
H          179.35269947355400        0.68560062270319       -0.01470867040540
H          180.21735835493013        4.42643793613355       -0.19584262065118
H          182.79784299658033        4.48985609682855       -0.23024704702155
H          184.73727242132867        2.60980361204123       -0.15695888187705
H          184.70944808692062       -2.73896521573186        0.11083453759348
H          182.76556702082439       -4.58539938503846        0.21005244033326
H          180.98883237860468       -0.75737208924675        0.03945292153194
H          180.12393195189270       -4.49824668058795        0.22222597275241
H          177.54304992607021       -4.56277787193526        0.23959559863774
H          175.60350612153181       -2.68276605290547        0.16481393779184
