392
 energy: -655.746214493279 gnorm: 0.000899782167 xtb: 6.5.1 (b24c23e)
C           69.18755233538508       -0.07441156395090        0.08411606365459
C           69.80117277628020       -0.94598743050107        0.97496810939586
C           69.15338996423012       -1.86324290507237        1.84852325270322
C           70.11800209634168       -2.52037801975882        2.55999404905028
C           71.38586120840033       -2.01663330166111        2.15286282515084
N           71.14418803204317       -1.07940385116372        1.18850077788374
C           72.65029208167448       -2.39718937177649        2.61998172261319
C           72.68551480271898       -3.40980274362968        3.70098907428359
C           73.35591603480205       -4.62224970256287        3.51923225438249
C           73.38397268836290       -5.57516681932389        4.52164978924035
C           72.75002510254005       -5.32837461011134        5.74221332123739
N           72.74130295749671       -6.29528289080076        6.73235190850745
C           72.07427431435505       -4.12007483546503        5.93110861857839
C           72.04348271945699       -3.17628507231081        4.91981245006306
C           73.86128230329152       -1.89146240379151        2.13949955798288
C           75.15970106992999       -2.24219550642238        2.68546757573721
C           76.07543179662693       -1.56582197271587        1.96081009379763
N           74.00978042461770       -1.00037528096388        1.12009146149439
C           75.33495320933915       -0.79524863519108        0.98127539571856
C           75.96725600514901        0.02897724528184        0.02732538780707
C           75.32748466098705        0.84885540038436       -0.92232558358898
C           75.96866102389954        1.65452052358934       -1.89983723048498
C           74.99958972411665        2.31017854489237       -2.60816984600951
C           73.73572377988259        1.93189904766641       -2.07725057261262
N           73.98602628752084        1.03932915104591       -1.06772783734412
C           72.47255809953154        2.35912757031349       -2.50208274875092
C           72.43302627303309        3.36764896784848       -3.58598126315364
C           71.77147374674936        3.09704608464582       -4.78678793595733
C           71.72855031505142        4.03664630997740       -5.80115458911265
C           72.33731785481527        5.28262592103685       -5.62937510882112
N           72.32705083516808        6.21172953486129       -6.65509307915848
C           73.00690563459264        5.55897777496419       -4.43453866469712
C           73.05353137271896        4.60974456768944       -3.42904259889549
C           71.25951946871986        1.90084927419850       -1.97431327154369
C           69.95260750084765        2.39469870543645       -2.37835345582293
C           69.04374713097417        1.70764563947453       -1.65670676627745
C           69.79450958406045        0.80531478263345       -0.80246906672876
N           71.12537485830568        0.95663743502482       -1.01320261242825
H           68.10216141297165       -0.08909450589313        0.08894895391741
H           68.08529942334177       -1.99912802233171        1.90966337051576
H           69.96909982489522       -3.29443985428231        3.29522854759500
H           71.86807621605382       -0.56420236921924        0.69875931393331
H           73.84148113990599       -4.82601220966883        2.57118097427007
H           73.89826503846322       -6.51690591165192        4.36404131657578
H           72.56962204248966       -5.95038738571152        7.66327421261775
H           73.49054170932348       -6.96671631238330        6.67875042448765
H           71.57796867417369       -3.92343354727874        6.87522854163632
H           71.53424199225118       -2.23261021158421        5.08301893688385
H           75.32658447610342       -2.90295850155159        3.52073963010337
H           77.14866753709053       -1.56432018565333        2.06556014685480
H           77.03596255243829        1.71353355769032       -2.04023747865769
H           75.14475696755969        2.98719538519504       -3.43411649133311
H           73.26510223271185        0.58248708170798       -0.51891009612341
H           71.30469039316256        2.12897599090131       -4.93188006835325
H           71.22098007317385        3.81034653926104       -6.73249893036199
H           71.57972826200289        6.10183536337836       -7.32180510752297
H           72.47889123684558        7.16530056419702       -6.36755031171648
H           73.48481447445927        6.52275297095987       -4.29661280658677
H           73.55698643032692        4.84102843209698       -2.49658861517881
H           69.77809050298465        3.17233863592977       -3.10454593041898
H           67.96802516336319        1.78939571290970       -1.67128792938139
C          156.01895434852972        0.07853596448101       -0.10484548479806
C          155.40297547400544        0.73562768507833       -1.16245489468174
C          156.04886556346204        1.38176024334544       -2.25306167063292
C          155.08199758672046        1.90786582652700       -3.06353070963345
C          153.81442778804873        1.60964276319866       -2.48799119310878
N          154.05878909944732        0.89348690113765       -1.35042153285082
C          152.54823704244080        1.95247630287412       -2.97881083070613
C          152.51090393429831        2.76888573890868       -4.21485884089539
C          151.86490209343083        2.29905224099510       -5.36119361677665
C          151.83359940805744        3.05593061947801       -6.51879904288937
C          152.43940868603866        4.31469067621244       -6.55068526383939
N          152.44446694381455        5.05773346888260       -7.71836002118314
C          153.09160865063558        4.79013375664483       -5.41015584080604
C          153.12599712904404        4.02264149408623       -4.25945386627418
C          151.33795552438676        1.58275617851820       -2.38619375034321
C          150.03616821071770        2.00244878367480       -2.87216857353897
C          149.12266197236522        1.44853324351060       -2.04777566685351
N          151.19299585105432        0.80812542380443       -1.27509713720097
C          149.86762843359344        0.70223815265779       -1.05286128333693
C          149.23839476342593       -0.01631652988146       -0.01497124926225
C          149.88086414106496       -0.72027197227628        1.02178397440170
C          149.24275628062239       -1.46918210064926        2.04538115870017
C          150.21410916046293       -1.99137488432666        2.85437668119452
C          151.47642013179640       -1.56801556081790        2.35460470895664
N          151.22277294840427       -0.80966986863871        1.24141885578185
C          152.74111901953975       -1.87537085207122        2.86885502397708
C          152.78518481640924       -2.68665388009551        4.10735820684263
C          153.44534025715402       -3.91814588365213        4.12775455467982
C          153.49323119695464       -4.67903456424722        5.28203270290129
C          152.89111384066715       -4.21401562861041        6.45410466851410
N          152.90645638698626       -4.98834264087670        7.60111939260390
C          152.22303879942868       -2.98689962985137        6.44071553235714
C          152.17129404975950       -2.23692594919518        5.27913537710106
C          153.95258752916649       -1.47022252469207        2.29591608518273
C          155.26050866146417       -1.74134494362481        2.87129248558092
C          156.16733828524056       -1.19753605776603        2.03421067679156
C          155.41433655534058       -0.58311178770108        0.95578303571087
N          154.08414500786796       -0.75923188322217        1.15119045102710
H          157.10433115848085        0.09036604415373       -0.11608212425262
H          157.11740123116732        1.42511698819441       -2.39222946743192
H          155.22911619919432        2.44613669251987       -3.98578335822260
H          153.33608186205964        0.52690056288117       -0.73999452520421
H          151.40108914501772        1.31885228726576       -5.34799219850083
H          151.33824187156861        2.67542721107279       -7.40538831523889
H          152.59187222030837        6.04651614868717       -7.59321931716377
H          151.70699300823733        4.83534128510184       -8.36777581266570
H          153.56646714214929        5.76506202050937       -5.42929164255872
H          153.61658049294221        4.40857381108158       -3.37240123582120
H          149.86520309426660        2.64725804339152       -3.71897788080963
H          148.04806086631606        1.53116595172125       -2.08214888265615
H          148.17586437717611       -1.59347315073986        2.13827297050259
H          150.07158930611988       -2.62471811864809        3.71471221460136
H          151.94195097745828       -0.38929229224517        0.66201117192148
H          153.90729563400782       -4.29043854418845        3.21996382615106
H          153.99964283504997       -5.63808274972082        5.28196427302951
H          153.65287143922970       -5.66333307211999        7.64931444812222
H          152.76026943862871       -4.48132997408020        8.45935924147348
H          151.75031841992131       -2.62230652859940        7.34618882212078
H          151.66903386638029       -1.27560900878636        5.28372484192316
H          155.43691285452277       -2.26348974690095        3.79799221513706
H          157.24298571921688       -1.18761544231735        2.11760332661013
C           81.16935803132625        0.07645447114573       -0.02714644197255
C           79.94060972016162        0.06815901872765       -0.01765868837878
C           78.59666793644374        0.05890199089506       -0.00535101752871
C           77.37251862774984        0.04638916565812        0.01356865204508
C           82.51316471926013        0.08484110897873       -0.03024174321406
C           83.73759208878487        0.09107112971622       -0.02998003310317
C           97.19374689826456       -0.04058107163966       -0.00635694760980
C           95.96455132337927       -0.03620276441007       -0.00808051456551
C           94.62154712049146       -0.02369228312559       -0.00759889067989
C           93.39684124635293       -0.00780976347521       -0.00409338418688
C           98.53680285080698       -0.03818649323738       -0.00614315527901
C           99.76158968862086       -0.02972533606396       -0.00770193725105
C          113.21679912229948       -0.04116410170563       -0.00893436133193
C          111.98758875426799       -0.04248921768088       -0.00747740300199
C          110.64460665655866       -0.03592186379345       -0.00502623452828
C          109.41984475236394       -0.02630216010291        0.00276263918826
C          114.55977498875481       -0.03409138458142       -0.01021796091921
C          115.78451199792629       -0.02203492943575       -0.01168776449911
C          129.23946538534432       -0.03916803849234       -0.00985498422761
C          128.01027343176784       -0.03918128102294       -0.01175762163091
C          126.66721686050300       -0.03605363814810       -0.00827021749056
C          125.44243978647307       -0.02709144323808       -0.00148651408902
C          130.58252340821633       -0.03353136039994       -0.00810802514417
C          131.80728497985388       -0.02272328285034       -0.00784606300106
C          145.26489667213593       -0.05411584217528        0.01674276895313
C          144.03615187518648       -0.05387004570997        0.02320567985425
C          142.69231437059540       -0.04734412258602        0.02554196710759
C          141.46782849203569       -0.03558397488659        0.02744853252977
C          146.60888895314730       -0.04763892786420        0.01187669579106
C          147.83312090914632       -0.03405668340046        0.00050224729613
C           85.14195277269572        0.08932234577892       -0.02443387584249
C           85.76081259100458       -0.23316077865278        1.19954252126214
C           85.10335373683394       -0.58175690824097        2.40700082230804
C           86.06065427787001       -0.78388211123929        3.36409962817205
C           87.33070887257725       -0.55560166989334        2.76931379279501
N           87.09908291747077       -0.23872927809659        1.45714802687151
C           88.58494203438178       -0.64362208453191        3.38803640853231
C           88.58868829587581       -0.93950395127657        4.84016982798339
C           89.23516221735677       -2.07539467892172        5.33430836998844
C           89.24242040133679       -2.35472209133957        6.68910766639205
C           88.61265439785441       -1.48902712019967        7.58721458122518
N           88.58719242585809       -1.78364195578135        8.93907471346983
C           87.95839928065689       -0.35424885537073        7.10071353794763
C           87.94687718838117       -0.08803691592336        5.74309398988405
C           89.81322051285271       -0.47487811279871        2.74553028220855
C           91.09446564767460       -0.50651453208037        3.42712275679152
C           92.03771085326214       -0.32963045598907        2.47828975924399
N           89.99849212746231       -0.25427990622420        1.41424128558529
C           91.33059277913473       -0.17660277129653        1.22293947705707
C           91.99347593455676        0.01396833092085       -0.00698635926491
C           91.37350222581509        0.23432572899658       -1.25296927539463
C           92.02888961322734        0.39255153986520       -2.50071573019292
C           91.07163656740028        0.61481121718496       -3.45333812930553
C           89.80389897678643        0.60857826631157       -2.81143802226954
N           90.03665788596749        0.36099753077723       -1.48447014627213
C           88.55092229107460        0.80622976222340       -3.40670670252465
C           88.54960803782041        1.12261494123703       -4.85443576565321
C           89.22134186087560        2.24801003949473       -5.33893676301350
C           89.22067470209315        2.54863200715026       -6.68934739019156
C           88.54718563907440        1.72099620981989       -7.59155950146106
N           88.58583337804143        1.99033448467842       -8.94823351436096
C           87.88458129821538        0.58594877508817       -7.11686950797710
C           87.88151721424357        0.29848266920224       -5.76374100300158
C           87.32344279719177        0.72646918323868       -2.74497156786047
C           86.04499090912509        1.00334642914350       -3.37420726142349
C           85.10135861421725        0.79806097729186       -2.43138260302530
C           85.80563898397079        0.41000506730849       -1.22614123910528
N           87.13710109780233        0.38923864966952       -1.43882669401190
H           84.03480119416329       -0.66935042452569        2.51983466245330
H           85.90207534989283       -1.07686033685313        4.38905605650919
H           87.82566267127510       -0.04393695476014        0.77643752907047
H           89.71900464084551       -2.75649368396589        4.64290374132565
H           89.73844046451356       -3.24531640475022        7.05921915591124
H           89.32406795746726       -2.39318535039600        9.25615456935627
H           88.42270472529349       -0.99496782793631        9.54404195515014
H           87.46445215159616        0.31954335077428        7.79228844417698
H           87.45421186409627        0.80585068234072        5.37612607073822
H           91.23275435723750       -0.63080826122586        4.48893910494128
H           93.10926434932620       -0.29129532861005        2.59276111509779
H           93.09585616051830        0.33583289591069       -2.64415714068424
H           91.22882750034168        0.75818247052067       -4.50984918211787
H           89.31139804439893        0.27697837066111       -0.78009241713210
H           89.73021826939417        2.90651952399229       -4.64335165358983
H           89.73921858336425        3.42959064203094       -7.05170953956987
H           87.84051548381679        1.57818068492187       -9.48638815605371
H           88.77900561057851        2.94973522853542       -9.18740494874393
H           87.37239445579908       -0.06811194649436       -7.81403996859655
H           87.37332884831162       -0.58967260023385       -5.40461187756047
H           85.90917206353647        1.32600606241815       -4.39377825554142
H           84.03138945834272        0.90270122257018       -2.51529143023990
C          101.16509440486898       -0.01969425559315       -0.00341491853755
C          101.78933365906775       -0.31291543995979        1.22541150379351
C          101.13730265396346       -0.64890044446666        2.43923440373523
C          102.09832537382037       -0.82881216251577        3.39712213664113
C          103.36512289096618       -0.59888660805527        2.79618820835734
N          103.12797406097746       -0.30272165721462        1.48007892571001
C          104.62149484259005       -0.67064970311290        3.41273100748831
C          104.62968427061986       -0.94670221558402        4.86877253180819
C          105.28245065584420       -2.07220952235535        5.37807936080233
C          105.29209200955145       -2.33260559297117        6.73666030340812
C          104.65832174505324       -1.45792917845847        7.62318709287770
N          104.63473452019514       -1.73412473328234        8.97890617947518
C          103.99805760249961       -0.33325937520924        7.12152559915518
C          103.98426252210498       -0.08602182109050        5.76037904061497
C          105.84708734819762       -0.50249853093119        2.76495097053606
C          107.13052908890431       -0.52141912497941        3.44276247771832
C          108.06988015846314       -0.34710849321443        2.48957963880460
N          106.02710471770457       -0.29212346104332        1.43121161180656
C          107.35813142073791       -0.20765453534670        1.23528443754302
C          108.01640343293927       -0.01674970984188        0.00287092169282
C          107.39222537055734        0.19715734853038       -1.24219274941788
C          108.04439566872881        0.36764939733406       -2.48998609144549
C          107.08334477117454        0.57850540079688       -3.44145868589787
C          105.81641262302421        0.55150229386057       -2.79881374286065
N          106.05354495632950        0.30542783704447       -1.47243027492672
C          104.56006833420918        0.72646616833818       -3.39429804368815
C          104.55338150360483        1.04754559117836       -4.84110143927025
C          105.19793598868017        2.19152016539959       -5.31886040606036
C          105.18847306487855        2.50087962283089       -6.66724979628718
C          104.53361580872685        1.66342047977378       -7.57407631595917
N          104.56267589150143        1.94349307625577       -8.92886619642465
C          103.90005621159924        0.50907724953796       -7.10635443961186
C          103.90527340904799        0.21283785665730       -5.75508094893788
C          103.33429838389495        0.62301246296198       -2.73342685326180
C          102.05069516625508        0.86940681486032       -3.36469422379617
C          101.11133971701516        0.65293027285273       -2.42018381003021
C          101.82324752674860        0.28976629435262       -1.21160970443504
N          103.15438523416653        0.29129708033155       -1.42457242757274
H          100.06979345337348       -0.74438421256805        2.55550061934840
H          101.94434798062427       -1.10841052974857        4.42650402484695
H          103.85146687416957       -0.11150784682122        0.79507577123096
H          105.76911526879505       -2.76053410531097        4.69587413356171
H          105.79288393909158       -3.21544372822906        7.11872634913328
H          105.37448058325990       -2.33576542521737        9.30423316152075
H          104.46596402228779       -0.93829197227855        9.57320381701727
H          103.50102540578295        0.34748714265254        7.80402322396721
H          103.48664805992216        0.80006239505047        5.38135347801617
H          107.27285480474815       -0.63654327478308        4.50507687269035
H          109.14154433015429       -0.30189107178154        2.60046066375607
H          109.11197867351855        0.32697581845035       -2.63423791141908
H          107.23741597326585        0.72720443840648       -4.49769985367788
H          105.33002772284098        0.21036374199512       -0.76764892000911
H          105.69178886411373        2.85730417686574       -4.61937756053523
H          105.68507826164907        3.39651089086578       -7.02430909759163
H          103.82626287805276        1.51718107108982       -9.46827780063131
H          104.73103159762816        2.90927746716290       -9.16107927905828
H          103.40327382867495       -0.15273015075118       -7.80734613504615
H          103.41918244604136       -0.68970220460875       -5.40127842655462
H          101.90830051404262        1.18074554604059       -4.38686055938877
H          100.03954867996599        0.73582897927338       -2.50495677144854
C          117.18794747278325       -0.01110506789707       -0.00719769322650
C          117.81197636733569       -0.30503118615516        1.22153546149617
C          117.15960905113988       -0.64054661177885        2.43530105659804
C          118.12042871889558       -0.82081277157923        3.39328004489451
C          119.38745195639652       -0.59201810579263        2.79232831779601
N          119.15059085203619       -0.29594471615396        1.47615534475024
C          120.64369130983297       -0.66546117220674        3.40888424377012
C          120.65004756669552       -0.94058036805064        4.86511998730646
C          121.29838197726008       -2.06776563156393        5.37625366381885
C          121.30286894699039       -2.32845479812352        6.73483361462015
C          120.66826354909739       -1.45249125733954        7.61949793140825
N          120.63825793806483       -1.72959237532441        8.97487280907066
C          120.01330327805471       -0.32551471726601        7.11604693577824
C          120.00462612791540       -0.07799307477584        5.75494041965671
C          121.86952166885816       -0.50005187431099        2.76084279253443
C          123.15312634278898       -0.52262924542255        3.43812027776932
C          124.09251396409141       -0.34969532593786        2.48470672336701
N          122.04948085628710       -0.28903849970233        1.42719291394280
C          123.38061484057110       -0.20656664331271        1.23088046199205
C          124.03893440414414       -0.01443121425497       -0.00134216702470
C          123.41497265489217        0.20056722921283       -1.24637154122940
C          124.06723622489329        0.37021061215564       -2.49424174365751
C          123.10639068284260        0.58235926841973       -3.44568124669700
C          121.83944511308229        0.55640598587506       -2.80307786162794
N          122.07635658975927        0.30995447685166       -1.47671365854249
C          120.58312614836527        0.73259230790817       -3.39835729428815
C          120.57506531403230        1.05225069201054       -4.84543379653532
C          121.22032036179618        2.19456491389605       -5.32614329036865
C          121.20675643197706        2.50305592886699       -6.67473298254242
C          120.54688379277981        1.66649826572188       -7.57874670200983
N          120.57076024951826        1.94618599799648       -8.93372715807387
C          119.91322001899258        0.51336370883759       -7.10820731606578
C          119.92265557315800        0.21796370903172       -5.75681374548034
C          119.35743435561555        0.63097200062498       -2.73702367522432
C          118.07396509489145        0.87964898206293       -3.36778510406576
C          117.13453219538071        0.66342491455116       -2.42331404307124
C          117.84628436512664        0.29860876896943       -1.21518163384399
N          119.17735585892005        0.29875695747381       -1.42830813396642
H          116.09203517998687       -0.73530613205080        2.55150719075978
H          117.96613300055954       -1.10005177392989        4.42270286668666
H          119.87426843246584       -0.10546958427550        0.79113985645501
H          121.78516912738094       -2.75743300662703        4.69549392749827
H          121.79980995151442       -3.21285809417930        7.11830365704437
H          121.37468062833683       -2.33377652525317        9.30297348581972
H          120.46896027800068       -0.93385471928624        9.56912933413630
H          119.51593399788055        0.35645985358594        7.79707455459165
H          119.51064046407258        0.80949454000319        5.37444329856090
H          123.29551091214719       -0.63930535504513        4.50026148137890
H          125.16432754022485       -0.30724649866655        2.59523164286996
H          125.13477822481056        0.32849455654577       -2.63853312194215
H          123.26059983288972        0.73126698692787       -4.50188003181713
H          121.35269423571005        0.21534882390021       -0.77201776382971
H          121.71762659749078        2.86005559354052       -4.62883797084105
H          121.70369475923862        3.39758751891989       -7.03407433358755
H          119.83128152383713        1.52097246487407       -9.46981812160851
H          120.73948533842939        2.91169331931425       -9.16684211148820
H          119.41270520144390       -0.14791654665929       -7.80703448495257
H          119.43613406294457       -0.68344950826752       -5.40074426696207
H          117.93163417673672        1.19242784519743       -4.38951530283663
H          116.06282406669155        0.74777643311120       -2.50772866083374
C          133.21079693114271       -0.01234031292054        0.00006612418512
C          133.83161324664826       -0.30919507935462        1.22960318125472
C          133.17608113851307       -0.64650323763373        2.44120803200078
C          134.13451266243430       -0.83060317474618        3.40072171863331
C          135.40332609583223       -0.60233757848740        2.80307409484025
N          135.16969688091328       -0.30249995410033        1.48714798271136
C          136.65780652543330       -0.68100625764920        3.42226875582640
C          136.65860085773090       -0.95913525752244        4.87801209563595
C          137.29964257381368       -2.09015870480079        5.38971839506214
C          137.29657981619178       -2.35370774148534        6.74779842209559
C          136.66137895236764       -1.47705606272704        7.63133336228234
N          136.62282263331812       -1.75736910600848        8.98584897697379
C          136.01412682703204       -0.34589632317389        7.12730574046573
C          136.01312755953248       -0.09541786329616        5.76674331115946
C          137.88597819668456       -0.51800728129276        2.77770887692130
C          139.16793082882154       -0.54994080900591        3.45786376491405
C          140.11028793028794       -0.37561900331464        2.50767714767630
N          138.06980538863317       -0.30026030108720        1.44593884134065
C          139.40200865459403       -0.22171715394277        1.25304060246582
C          140.06350802025040       -0.01910440361841        0.02462632498435
C          139.44314543542785        0.20999277493321       -1.21941779087904
C          140.09882198192358        0.39109386670631       -2.46403578597033
C          139.14044301392235        0.60734434956147       -3.41691994910925
C          137.87141822571178        0.57291740850013       -2.77862222177128
N          138.10487214580792        0.31875097385867       -1.45314588705770
C          136.61642817320393        0.74647121377155       -3.37735356493642
C          136.61084467205265        1.06758110742310       -4.82427309998776
C          137.24933100673078        2.21435583263602       -5.30309514846768
C          137.23625568810698        2.52329370459923       -6.65166595252424
C          136.58376137339908        1.68276734756124       -7.55731500673165
N          136.60788506349647        1.96337687842661       -8.91218406765607
C          135.95721744760269        0.52502496329401       -7.08860639116126
C          135.96605106205237        0.22918271258470       -5.73732803826469
C          135.38875157137792        0.63931636463552       -2.72059380441378
C          134.10697345131925        0.88627876222522       -3.35564723569440
C          133.16459992160421        0.66671846133025       -2.41492729628049
C          133.87274632837045        0.30056619618049       -1.20506087898803
N          135.20459545383261        0.30398418777627       -1.41330664570016
H          132.10812160866010       -0.74004671039266        2.55484279391709
H          133.97752940875219       -1.11232817770305        4.42905864480637
H          135.89497979460387       -0.11113306006671        0.80408722671760
H          137.78643106700275       -2.78066289747604        4.70980987212593
H          137.78773384800741       -3.24115696169206        7.13170548809418
H          137.35486398353842       -2.36545927249971        9.31650555349145
H          136.45357004855822       -0.96237262428887        9.58110646946271
H          135.51643465178449        0.33676137909407        7.80741306822457
H          135.52482896687394        0.79501808207017        5.38578843728866
H          139.30734660357450       -0.67350024603284        4.51962622088820
H          141.18200286573017       -0.33820531657282        2.62096290286893
H          141.16692291419093        0.35329177943455       -2.60525197093189
H          139.29751158419543        0.76445444977787       -4.47151322421880
H          137.37928787769638        0.21658795933683       -0.75148464517094
H          137.74072399529442        2.88293357940674       -4.60455641445770
H          137.72771274686579        3.42138099919217       -7.00968668264157
H          135.87212137177013        1.53318975679027       -9.44945733738763
H          136.76949655114322        2.93033931671041       -9.14434204890434
H          135.46250424514216       -0.13932195223960       -7.78866113783149
H          135.48472252639573       -0.67548272098348       -5.38244275533930
H          133.96772337634297        1.20046071536190       -4.37737004675003
H          132.09302551362168        0.74904678635599       -2.50298608669443
