177
 energy: -299.931417754241 gnorm: 0.000658590567 xtb: 6.5.1 (b24c23e)
Co          30.63004321325994        0.22709094114445       -0.38836429666096
C           27.67405294264324        0.03622874072229       -1.93765483008631
C           28.13612957977468       -1.09149709535740       -1.28663994934831
C           27.38321875873735       -2.30007440380050       -1.14582048921416
C           28.11227728688857       -3.12306231086153       -0.35367570545554
C           29.34634080333174       -2.44719378510693       -0.07676998281330
N           29.32317352909112       -1.18303517338662       -0.60968661400325
C           30.46353946288744       -3.04246015165659        0.49643074182225
C           30.39605560299152       -4.43402665396153        0.99557071933537
C           30.06436631578552       -5.46829952413901        0.20693167672876
C           29.99267355365280       -6.88388333569640        0.71579836796772
N           30.67442679026835       -7.02146613978015        2.00436222244098
C           30.84824385132461       -5.94212843439700        2.82771979530660
C           30.75407625912865       -4.67506198625640        2.38526189135043
C           31.69560653873021       -2.39841316099570        0.51839722907713
C           32.93816938691187       -3.06319152304565        0.76921822243525
C           33.91901755102854       -2.14866310858324        0.57037028959181
N           31.91780425277969       -1.08253865092934        0.19749038703096
C           33.27264493664539       -0.91283909635947        0.26091396580809
C           33.93140754569145        0.32084115064489        0.24002292000845
C           33.21295254669947        1.52454843471493        0.24964731324122
C           33.77604220946955        2.78064470276538        0.62992459136841
C           32.76531766788126        3.68428794376291        0.61295518400253
C           31.60019340285191        2.99127556267133        0.15212775910948
N           31.88050331307698        1.65197346081724       -0.00751294568173
C           30.42133648213260        3.60751870872992       -0.24199769744807
C           30.25638173704275        5.06815866747799       -0.06877359678318
C           29.23983326776132        5.56329145397818        0.65470073292003
C           29.02818178618942        7.04031743747124        0.85368920587651
N           30.21826902180672        7.80459583856257        0.47213445241057
C           31.12314863181101        7.29372248154057       -0.41994500284340
C           31.20808677971934        5.97800152247958       -0.68789916358683
C           29.41893210427548        2.89790000536721       -0.89811830965983
C           28.34239992666375        3.50741275591513       -1.62232449571365
C           27.63629292608443        2.50386302754512       -2.19722024194584
C           28.24992845430553        1.27958323489845       -1.77928545321402
N           29.36350904158970        1.53693876504302       -1.01914824954385
H           26.74985246023967       -0.03584622726590       -2.49926089227474
H           26.40711551901695       -2.46685596476898       -1.57340698590171
H           27.85213823081820       -4.10687841773194        0.00176168185466
H           29.82574939904164       -5.33553155969818       -0.84163115935421
H           30.47252891381382       -7.56730153510045        0.00192932843515
H           28.93758323886338       -7.20160465187231        0.81136196272620
H           30.53684598647981       -7.91568868831963        2.45173343294473
H           31.14426198745242       -6.18718344959000        3.84265080109839
H           30.94753343363190       -3.83510727635183        3.03711406333750
H           33.03780229740222       -4.10392735773078        1.03191827401181
H           34.98539403270280       -2.27864801282420        0.65647066447769
H           34.80486866649029        2.93126002666657        0.91375650299236
H           32.80336960301129        4.73097395930691        0.86728822458084
H           28.50997456846754        4.91608489354388        1.12693921664126
H           28.81144140962089        7.25299732335193        1.90952803446789
H           28.15510665191002        7.38232023595397        0.26708971483448
H           30.07271356959753        8.80322908196653        0.44159933050314
H           31.81675890858129        8.02030469944312       -0.83098460766280
H           31.95523295380854        5.58993151564260       -1.36539218034762
H           28.17677763267750        4.57016252765451       -1.69710566437444
H           26.75882159386011        2.56731885279486       -2.82119215670841
Co          52.08736402606930        0.23371872392609        0.02986795415419
C           55.44341650043321        0.03194943595857       -0.18672635848081
C           54.87160974284410        1.26904427351532        0.02409247047651
C           55.61486479312698        2.48028149824537        0.19502203220201
C           54.71742801730204        3.49425459467576        0.16258329642420
C           53.42819064141258        2.90104441885003       -0.04327166182122
N           53.52723752214973        1.53337415446507       -0.05313771319123
C           52.27008407315234        3.61420938534889       -0.32737421969768
C           52.34428520927463        5.08347786257831       -0.48872046859902
C           53.13592079063800        5.65152027456666       -1.41239703278194
C           53.23741617896884        7.14306580980964       -1.58944718563550
N           52.14856014227521        7.83824547049962       -0.89917584695304
C           51.48882047780276        7.25101601514876        0.14679241070997
C           51.52152857438141        5.92421469109650        0.36737955720261
C           51.04170333046353        2.98332349504371       -0.46628975605114
C           49.82501941957121        3.65377170244932       -0.81361747320526
C           48.82378230011155        2.75473707710216       -0.65335358814931
N           50.79144094278674        1.66376476546716       -0.16899273586208
C           49.43114402167975        1.53659308100422       -0.21947794394549
C           48.71467850119332        0.43746626356740        0.26045034366705
C           49.35358877012889       -0.74351023185011        0.64695840733001
C           48.66893737146064       -1.88506724392417        1.16618208052444
C           49.56597381407626       -2.90064710364118        1.18693003941910
C           50.79522493868290       -2.37699417321031        0.67193588785723
N           50.66864053657202       -1.03273390898799        0.40972708382396
C           51.90752024107368       -3.14927738913756        0.36666731396694
C           51.81896359835343       -4.61940701326554        0.50967751585746
C           52.65282650093103       -5.30300191144694        1.30972300431769
C           52.58743348808557       -6.79937405069596        1.46178706546818
N           51.32843357370480       -7.33440719041188        0.93842850967984
C           50.61054682883783       -6.64708121142226       -0.00359779392761
C           50.78413457121811       -5.33148028447673       -0.22468877079561
C           53.09662120367722       -2.57523117858768       -0.06590269695209
C           54.26848674273183       -3.31439977182135       -0.43589559460206
C           55.27028575879537       -2.41435797176833       -0.58049617833521
C           54.70560594599063       -1.12593442686997       -0.31648552504291
N           53.35997633773007       -1.22936858323405       -0.06827425836073
H           56.52300739694419       -0.03302252846351       -0.25616544898868
H           56.68563113453592        2.52915695016462        0.31535186279524
H           54.89943884433167        4.55192846619317        0.26479461450551
H           53.75415569511596        5.05833597609680       -2.07605449780290
H           53.18492034556262        7.40213216080533       -2.65600958289126
H           54.21299372568932        7.50522927194140       -1.21498868372234
H           52.26020551137979        8.84061666201585       -0.85705066230354
H           50.87631098193512        7.92703353629593        0.73481466697118
H           50.95547572558166        5.47389273327523        1.17032163816058
H           49.75635196152697        4.68185273711842       -1.13036664911078
H           47.76482088396214        2.89415724592521       -0.79902346826781
H           47.63151328351218       -1.89789200465665        1.45911701041421
H           49.41753105004661       -3.91731563538149        1.51304616141653
H           53.42717464521927       -4.80727605706691        1.88341458792386
H           52.65967867622450       -7.07544016694352        2.52280123885729
H           53.44258017836980       -7.27251475128997        0.94398728704278
H           51.30240211560105       -8.34176439547613        0.87787009229625
H           49.83874549530879       -7.22700700170256       -0.49948597583672
H           50.17443775443849       -4.79657772984275       -0.93891890628591
H           54.30776547607267       -4.38433211897248       -0.56199415715508
H           56.30354144599750       -2.58850301449166       -0.83635756621231
C           35.33065050146708        0.36546095509116        0.34880266313485
C           36.54517627767321        0.42309585652620        0.42706391366231
C           46.10227170468324        0.58006733608871        0.45131092377970
C           47.31444508546863        0.51835621101544        0.35920513954579
Co          41.31995435077759        0.69396852031901        0.74887007241415
C           37.94242674403657        0.50723631788739        0.53888947794760
C           38.57219652872604        1.73122239724425        0.27867039623517
C           37.87546350262728        2.94419829567854       -0.00656057574806
C           38.81461169802652        3.87074549950951       -0.31980799063462
C           40.08120595370244        3.20558584682474       -0.26684801431427
N           39.92078086307326        1.91027809822183        0.17295029464078
C           41.26356503623173        3.72880875611544       -0.76865629632472
C           41.26726428497091        5.07014939737660       -1.39154006353501
C           40.48255391944475        5.36630441927251       -2.44057026896524
C           40.52000693551055        6.70379797080632       -3.12883898073483
N           41.21355496044601        7.70395729246043       -2.31444028394537
C           42.11526846659916        7.33042743628173       -1.35503991041946
C           42.16548249611664        6.08147168969933       -0.85711995751198
C           42.45080242271744        3.00409344065335       -0.75437439325493
C           43.64831505367619        3.40356900636787       -1.42761390685228
C           44.60289752331938        2.49897158885765       -1.09640682334948
N           42.65893663731328        1.84273357328895       -0.05454001991953
C           43.99062575019664        1.56565824443549       -0.20538656210450
C           44.70276986770364        0.64186778924110        0.56246495518246
C           44.06174973091792       -0.18164675136915        1.49550957167131
C           44.74714547304884       -0.98203973288679        2.45834334222063
C           43.80155803480026       -1.70614597788316        3.10764424237552
C           42.54531413722032       -1.37406793365901        2.50677869740251
N           42.71359609917965       -0.37719135651574        1.57245867270753
C           41.36898316352271       -2.08735390601060        2.69248996836381
C           41.36234841291878       -3.27132270152647        3.57847376356067
C           42.19149947509868       -4.30945769603417        3.38219089047341
C           42.20377860871565       -5.51954121325136        4.27722996062760
N           41.01019183137753       -5.57000017728056        5.12416716682370
C           40.29542818549796       -4.43743001997130        5.40495132106922
C           40.40307510738030       -3.31468735471546        4.67120418682616
C           40.19687920023490       -1.75106934487527        2.02424892187709
C           39.01091257962475       -2.55105566798164        2.02256134478910
C           38.06248845624469       -1.84196643458115        1.36241411146271
C           38.66584526282421       -0.60493487406915        0.98022403408414
N           39.98802360281872       -0.58491121141096        1.32996356081433
H           36.80500319280926        3.06205236165925        0.03395618946578
H           38.67038719317967        4.90719186456306       -0.57796066701019
H           39.83605490190022        4.62508459507003       -2.89570858390473
H           41.01300695095046        6.61144768448233       -4.11463867035485
H           39.49769603850613        7.06241529444759       -3.31228465480898
H           41.39725912626224        8.57278070225660       -2.79442914183433
H           42.73007779236315        8.13804421410255       -0.97078269656854
H           42.83723313469305        5.82470153801629       -0.05044584476873
H           43.73494045144081        4.26064388238630       -2.07587609594232
H           45.63525059102130        2.46628211269422       -1.40495824104256
H           45.81319535590313       -0.97128787319133        2.61855491515524
H           43.93618204449886       -2.40830728974570        3.91415663071191
H           42.90274497587001       -4.32506636075154        2.56472923408633
H           43.11270761919423       -5.51662926594233        4.90711060750031
H           42.23276359310943       -6.43702902932243        3.67326263944673
H           41.04417625185621       -6.27506965337619        5.84559636459107
H           39.58113339299356       -4.54009127862123        6.21557396549076
H           39.79327209153701       -2.44696592799672        4.87872867785282
H           38.92642725134061       -3.52947261135798        2.46703513982456
H           37.03735584774154       -2.11081450901805        1.16700372133139
