128
 energy: -242.815630241845 gnorm: 0.000471476694 xtb: 6.5.1 (b24c23e)
Co          15.77889065263091       -0.00196126467529        0.11693489262859
C           12.41221235749804       -0.02034052040714        0.28762247271003
C           13.05066816083658        1.19140053343928        0.13207865905980
C           12.37059850365340        2.44484563688446        0.00872963309573
C           13.32162906485922        3.40743871916825        0.03756894489878
C           14.58067734181612        2.74085914255037        0.20317871880868
N           14.40905254031405        1.37960012087697        0.18501572345089
C           15.77693273012500        3.38741890302638        0.48112748915717
C           15.78655140449443        4.85950879751136        0.64360530787640
C           15.00244235048937        5.47175680388231        1.61719363710875
C           15.02455796895204        6.85698420202272        1.77449458822699
C           14.16967588217406        7.44971904345290        2.83393732981581
O           14.27685081803472        8.78309652342127        2.92521101188403
O           13.44167415126908        6.81547161544452        3.55383618245014
C           15.83254526724499        7.64161530986100        0.95181219465079
C           16.61201803517153        7.03451429103482       -0.02040177517151
C           16.59300712906698        5.65561882897107       -0.17373367456051
C           16.96667027503157        2.69067799122950        0.63922322153444
C           18.20553595264573        3.29056981424589        1.03311517556963
C           19.15563177544218        2.32986703638597        0.92872901516779
N           17.14887377881210        1.35849325654361        0.35190907554964
C           18.49468427229404        1.14893949490649        0.47202726862738
C           19.16921400356756       -0.00022340805270        0.05352404829692
C           18.48627137859330       -1.13481408992321       -0.39178056674164
C           19.13645432303330       -2.29143809382537       -0.92074994586845
C           18.17584242831118       -3.23074040705662       -1.09659771775159
C           16.94502295684594       -2.65024426303345       -0.65039847168616
N           17.13871949731912       -1.33599788038590       -0.28874754140350
C           15.76614884219316       -3.35912147712539       -0.47606203203483
C           15.75408416612069       -4.81771596291657       -0.73413679023516
C           16.60219699651383       -5.67134826142287       -0.02491873209367
C           16.58810029920513       -7.03877039798320       -0.26188997821249
C           15.73092698256570       -7.57050113029626       -1.21070246439902
C           14.87861402316376       -6.72781667782916       -1.92589685472366
C           13.97462072217684       -7.33654819830375       -2.93415876816467
O           13.18840580220863       -6.44686115785177       -3.55707263566873
O           13.93265897889842       -8.51366883358422       -3.18538087950291
C           14.88967997570508       -5.35549812534392       -1.68547253341321
C           14.59798862106427       -2.74368523697863       -0.04458871320345
C           13.37706632585380       -3.43832677756794        0.24220504136324
C           12.43418759139573       -2.49425453685413        0.47186851540204
C           13.08042928127811       -1.22526565662918        0.32768764781160
N           14.41850916645667       -1.38966337082487        0.06907637081418
H           11.33141039884056       -0.02744184797506        0.36451071564715
H           11.30168761196872        2.55319774515775       -0.08307047366109
H           13.19549960342722        4.47535205040943       -0.03612113677467
H           14.38019171240303        4.87693047889204        2.27687609209756
H           13.69156916569592        9.09163930693620        3.63596653445045
H           15.84767618105576        8.71770231200457        1.07517581809135
H           17.24031391914028        7.63847823531210       -0.66522129131283
H           17.19746251068173        5.18774717969722       -0.94272540799489
H           18.32139357073761        4.31340094547687        1.35274801080695
H           20.21277881200601        2.40204172950825        1.12745411639124
H           20.19287049779389       -2.35993868388120       -1.12470546648933
H           18.28135028342811       -4.23026788427293       -1.48583223103637
H           17.26395700135829       -5.25884620337847        0.72842271914527
H           17.24859656633662       -7.68951263027166        0.29969804354891
H           15.70765242167678       -8.63612789090922       -1.40889095855203
H           12.63234528036633       -6.92130424350668       -4.19628938046547
H           14.23572529302176       -4.70194235227474       -2.25056091611886
H           13.26966357824856       -4.51073637072186        0.26241692662876
H           11.38994138489247       -2.62488004253792        0.70693013357720
Co          29.16047181574374       -0.03506978029217        0.10519492112531
C           32.52798824373499       -0.07109801507994        0.26517450788980
C           31.88865224802535       -1.16642843768699       -0.27487684849450
C           32.56769636509222       -2.31067004550920       -0.80254742242002
C           31.61647875353349       -3.23153007457222       -1.08391414802352
C           30.35845271421363       -2.65651076062161       -0.70501171793827
N           30.53052036853214       -1.36337910682328       -0.27976322825663
C           29.16302152943490       -3.35941641615758       -0.64778024870480
C           29.15395352734817       -4.80459848248713       -0.97176066333809
C           29.94044992346446       -5.69878029158664       -0.25105455804816
C           29.91888118106865       -7.06016177830996       -0.55144233512611
C           30.77594500141650       -7.96384010319366        0.25699040422070
O           30.66893040520526       -9.25482160476455       -0.08871681398044
O           31.50477436198958       -7.59676291398897        1.14274751442917
C           29.10924701433732       -7.53628708963236       -1.58250379977756
C           28.32755088437869       -6.64737934114830       -2.30371884359482
C           28.34589113959573       -5.29328501935885       -2.00151308969807
C           27.97376313991048       -2.75237624924874       -0.26987995173877
C           26.73518434825613       -3.44821714971367       -0.09180868318657
C           25.78453557686047       -2.50603912285077        0.12019667319079
N           27.79095570822938       -1.39909414322201       -0.10889501213965
C           26.44492119847961       -1.24047531210377        0.07162854763580
C           25.76972737830804       -0.01808387195664        0.04983457814312
C           26.45198175854186        1.20001990622733       -0.00050770604907
C           25.80152561348281        2.46587187465667       -0.12184696379709
C           26.76168700484822        3.41125631544797        0.02100113190258
C           27.99266192641601        2.71704102494030        0.25269781246319
N           27.79941216627723        1.35685379283637        0.16401478177279
C           29.17173222703907        3.33023551389502        0.64836558129700
C           29.18290777900012        4.79282526269503        0.88287142879401
C           28.33572252445277        5.36578089379774        1.83417974298090
C           28.34889938073223        6.73527642068695        2.05891635671538
C           29.20424678755557        7.54964839308076        1.33578295402237
C           30.05546150397756        6.98903902214143        0.38225745526402
C           30.95722087147113        7.89566633086457       -0.37216843509378
O           31.74303615366304        7.26017143088520       -1.25329331883737
O           30.99839019387542        9.09010653231708       -0.22344010414388
C           30.04526277942061        5.61379113789791        0.15913336272196
C           30.34103688343415        2.60842154601086        0.85088365848428
C           31.56322875989247        3.17223250646192        1.34478121572796
C           32.50694633711497        2.20627207981734        1.24862682712755
C           31.85996568669152        1.05364184896727        0.69939711330147
N           30.52072388709059        1.29183590364525        0.51465033564882
H           33.60908433524982       -0.08816895633844        0.33601975903646
H           33.63611317081566       -2.38191766332661       -0.92963790424197
H           31.74189832215094       -4.21725201586825       -1.50155525789442
H           30.56424094923288       -5.34942214171577        0.56443875142049
H           31.25516326152351       -9.77675559950713        0.48299636925748
H           29.09459879305566       -8.59421872957861       -1.81483056572052
H           27.69801369240857       -7.01011404871334       -3.10834821348968
H           27.73957575956126       -4.60186271092114       -2.57592024066163
H           26.61994601142012       -4.51948935538207       -0.12116542934737
H           24.72734031347547       -2.63912830210821        0.28416415763632
H           24.74521232751448        2.59717052971212       -0.29297353811486
H           26.65581607748298        4.48311896146688       -0.01918824717003
H           27.67545846093342        4.72832709523509        2.41151114016556
H           27.68919582885466        7.16515359961939        2.80396834303000
H           29.22681571701105        8.62133270241310        1.49815884948593
H           32.29789776942864        7.91852534210764       -1.70228463227562
H           30.69823387755430        5.18248017237620       -0.59033947583829
H           31.67088427089378        4.17898705192631        1.71472234391478
H           33.55222842859667        2.25404806855174        1.50916217179480
C           21.79486022053492       -0.00945990655028        0.06420112868742
C           20.57272027053633       -0.00827702979481        0.05861466475346
C           23.14403913112824       -0.01293630961098        0.06333478933503
C           24.36616138989839       -0.01331255054645        0.05689208466042
