274
 energy: -508.074862890022 gnorm: 0.000925272090 xtb: 6.5.1 (b24c23e)
C           37.16362218945552       -0.10104237210001       -0.15334676702609
C           37.73944901879836        1.12246747235737       -0.46992514005526
C           37.05529253421820        2.34100162929510       -0.73922698946604
C           37.99158027793852        3.29845894962940       -1.01063088868925
C           39.27800442572232        2.69314107025859       -0.92412832001970
N           39.07517754775218        1.38488561630753       -0.58904651100765
C           40.52423616117733        3.30107214163931       -1.11318443960058
C           40.50942760030021        4.73621957538350       -1.49251623536905
C           41.08499472931409        5.69352544853505       -0.66208574657443
C           41.06209262816473        7.04206239651034       -1.01577402463148
C           41.68413359155588        8.01641487908295       -0.08401554536866
O           41.60845360185758        9.28638599490902       -0.50801727162590
O           42.21090814067279        7.72044408216539        0.95766507016612
C           40.46445559135081        7.44171730895665       -2.21099969849790
C           39.89280118559650        6.49004266553370       -3.04072585551629
C           39.91132731962653        5.14854818054176       -2.68562749383263
C           41.75969700815568        2.66644893765709       -0.96986410433709
C           43.03713935763852        3.31255990903553       -1.21375483484830
C           43.98652859306316        2.38578207542813       -0.97059784942087
N           41.95410410608734        1.36831546178287       -0.60708515077458
C           43.28774690995377        1.17320870938011       -0.58986058486030
C           43.96080232340564       -0.02015036516368       -0.25683113828235
C           43.35904107441761       -1.24750417313497        0.08160376392835
C           44.03720650720258       -2.44515277893827        0.43184823776935
C           43.09635091912460       -3.40417872719861        0.68579646253079
C           41.81298106053966       -2.82206208058922        0.49080512700894
N           42.02403325360586       -1.51697897401888        0.13182194570650
C           40.56773108360980       -3.43577839214352        0.66003921320387
C           40.57596008449005       -4.87004210343276        1.04051294948679
C           41.14475155920967       -5.82616872329811        0.19621255949321
C           41.14825192261542       -7.16867712403718        0.54915475391024
C           40.58803388214387       -7.57282215655508        1.74930812175157
C           40.01892662225717       -6.62641618132186        2.60279012316870
C           39.43059823711980       -7.09869032722805        3.88138740040612
O           38.90500399952498       -6.11493629158343        4.62589086982536
O           39.41240292121557       -8.24926650991934        4.23682689035081
C           40.01242491344257       -5.27935600791360        2.24735737064959
C           39.33108433224567       -2.80132676080664        0.50363887048474
C           38.04529631911152       -3.46794152566464        0.64348912355435
C           37.10284762312400       -2.53077786388876        0.41845083168977
C           37.81137981944885       -1.29599830703911        0.13029540846402
N           39.15082981983272       -1.49842529141075        0.18300895444090
H           36.07869757554987       -0.11586736319161       -0.12822790303485
H           35.98353128472789        2.45774900427648       -0.71827343127106
H           37.81305128007820        4.33623569160311       -1.24112667983085
H           39.81808289799048        0.71013835768851       -0.44071825219076
H           41.54324074215113        5.40264575541507        0.27681205495240
H           42.03404321661205        9.85732046973557        0.15216011322603
H           40.44940078161034        8.48959727386389       -2.48509017016923
H           39.42918459433059        6.79300091408321       -3.97274398901416
H           39.47236078803697        4.40840990868514       -3.34543123301084
H           43.16717580146386        4.33249115345411       -1.53729585992860
H           45.05782440783653        2.48446593352926       -1.04206309207581
H           45.10890945224419       -2.54859950452389        0.48562826043982
H           43.27219979611260       -4.42253198565751        0.99193073588680
H           41.28364094308200       -0.84833681402028       -0.05361929910692
H           41.57099606937036       -5.51409989715519       -0.75080270958650
H           41.58878398641160       -7.89983768399962       -0.11915862130506
H           40.58256727564623       -8.61710998504440        2.04046920818227
H           38.54220134295625       -6.50270827122906        5.43905699782713
H           39.58179190811099       -4.54483186805082        2.91752421176335
H           37.90755418861350       -4.51276386086873        0.87097757432028
H           36.02933623563158       -2.63591049701378        0.43104932258148
C           99.71442151497831        0.04877461424052       -0.22501103921834
C           99.13866504762974       -1.19596435017128       -0.00588094115216
C           99.82390674603403       -2.41861358328685        0.24118938215424
C           98.88819108420741       -3.40293750648062        0.39175702778799
C           97.60089350043359       -2.81479832451349        0.23131813196279
N           97.80285430673963       -1.48344140068372        0.00334817847408
C           96.35397313553399       -3.44602886783990        0.30688267225676
C           96.36331161076987       -4.91161625165057        0.53919111591672
C           95.75876908929453       -5.45150935456998        1.67111754666170
C           95.76809022163437       -6.82844977710904        1.88960813314771
C           95.10697512830447       -7.34269762066518        3.11561907786475
O           95.16458818470034       -8.67704462459866        3.23570417387995
O           94.56413912705607       -6.64950298740652        3.93714462577653
C           96.38492713392053       -7.67820167017912        0.97148498931714
C           96.98780571922488       -7.14343192910400       -0.15608925531144
C           96.97948185088380       -5.77255008667284       -0.37225040650851
C           95.11978157157222       -2.80401102079206        0.18282183183486
C           93.84048420512825       -3.49091885256606        0.21169941303567
C           92.89356108649234       -2.54099752006303        0.06965899694258
N           94.92867662115526       -1.46780377577695        0.00304439296405
C           93.59540707680341       -1.27799320948592       -0.05666493748776
C           92.92418025607448       -0.04756123605544       -0.20937727605986
C           93.52606835640900        1.21403000747102       -0.38039173446048
C           92.84813205015439        2.45462509649957       -0.51452000579126
C           93.78845080795649        3.43417578893931       -0.67543730764421
C           95.07094655573880        2.81895862621013       -0.65254149522396
N           94.86031957344009        1.47859021201617       -0.46373902385410
C           96.31656623752043        3.44433953315382       -0.77081196281169
C           96.31055971051296        4.91034944513265       -0.99791076673930
C           95.70256564142035        5.45142015623354       -2.13298244346575
C           95.70164928951701        6.82250238451822       -2.34938893492654
C           96.30444912511496        7.67051463112388       -1.43558632715899
C           96.91370362967730        7.14234756342006       -0.29638047366773
C           97.54931259772086        8.08394597474459        0.65937765830729
O           98.11345722797151        7.47866135386619        1.71447099877177
O           97.56990121983661        9.28022278661308        0.52163691828834
C           96.91633277246918        5.76607218088235       -0.07990368220641
C           97.55195298839789        2.79342743399567       -0.68731720713264
C           98.83840853314410        3.45144990223652       -0.85876843773024
C           99.77871180523599        2.49855021316256       -0.70096829346871
C           99.06807171553460        1.25769735147773       -0.44579391710437
N           97.72942532382358        1.47157652571577       -0.45452966250209
H          100.79956574692903        0.06951795705151       -0.22263584830945
H          100.89606117186425       -2.51744981295780        0.30016062389640
H           99.06844478320748       -4.44411808525449        0.60498692260858
H           97.05891028591824       -0.80688031018990       -0.13118287509433
H           95.28649588191077       -4.80518232438169        2.40280523098426
H           94.71151954814094       -8.93237527932117        4.05572597428762
H           96.38982034832173       -8.74790856226803        1.14209357281166
H           97.46654325978655       -7.79801929640950       -0.87560487317325
H           97.43951314143057       -5.36349428304009       -1.26493064284628
H           93.70700540027002       -4.55558372056193        0.31406753696828
H           91.82207462992201       -2.65769093545427        0.04193998692920
H           91.77705441069224        2.57332635253942       -0.48487178554941
H           93.61260966962351        4.49144117324652       -0.78913329566250
H           95.60080507936050        0.78906771449337       -0.38670876160362
H           95.24379777915718        4.78862554308727       -2.85821868484395
H           95.23026213918972        7.22712942377710       -3.23769855092409
H           96.31335523523765        8.74363813712832       -1.58943971210514
H           98.50417408630874        8.15823327676524        2.28736701453114
H           97.37727737820083        5.35991648575424        0.81256969374517
H           98.97792850763715        4.49703545110989       -1.08149607816966
H          100.85194743413668        2.59323364719217       -0.75458352832393
C           45.36602104030555        0.00155542604378       -0.25454304231813
C           46.59091467379655        0.00649082880627       -0.24188428292228
C           47.93303143780202        0.01508287737109       -0.21930460210908
C           49.16358671020316        0.01527250076115       -0.18563607026796
C           50.50058057261108        0.01572710093863       -0.14810529357988
C           51.73118275510354        0.01461688313810       -0.11048548918187
C           53.07263354989658        0.01277588269462       -0.06825123754108
C           54.29714282030091        0.00797487498235       -0.02754353569047
C           63.97567830915994        0.01142892986796        0.11152864711405
C           65.20109924892391        0.00848441751236        0.11338862335427
C           66.54283567278600        0.01187631305894        0.11387317688647
C           67.77416734559149        0.01322781394748        0.11342659414297
C           69.11122948473334        0.01375663635059        0.11331968622516
C           70.34268754638209        0.01207209864836        0.11251042472551
C           71.68442946371846        0.01055908275854        0.10773534584680
C           72.90979927423751        0.00485652072864        0.10396264330191
C           82.58737970071213       -0.02207241971870       -0.01470666802086
C           83.81216109786379       -0.03315354318434       -0.04119304600657
C           85.15379835035996       -0.04118986041018       -0.06749164009577
C           86.38464877649835       -0.05100778212026       -0.09332661012862
C           87.72172621531672       -0.05986494362097       -0.11893316799620
C           88.95246476410799       -0.06786162006383       -0.14396574202827
C           90.29443149604275       -0.06703848065612       -0.16846754770008
C           91.51912311766567       -0.06453727031910       -0.19032411843845
C           55.70073842511982        0.00694106722880        0.01234927240978
C           56.32536135438539        1.25577358728124        0.19729883015782
C           55.67613696949608        2.51035641277202        0.32806938575721
C           56.63865472537167        3.46415809138273        0.51755735952994
C           57.90411156466051        2.81646175052137        0.51531090914030
N           57.66439795468148        1.48466654656523        0.30774978424542
C           59.16125440250551        3.41214628178664        0.67636560154631
C           59.16653499893971        4.87415671172154        0.93488475936827
C           59.78519279161777        5.74749675465657        0.04491387312731
C           59.78650903807800        7.12048357783715        0.28749767750700
C           60.45942737861332        8.00068650276115       -0.70108378092618
O           60.41092926283093        9.30167558300405       -0.38014283123149
O           61.00331274462481        7.60836520409547       -1.70129229056638
C           59.16797438202391        7.62966069865766        1.42920753454011
C           58.55258748987521        6.76190534679090        2.31763888343473
C           58.54881165742449        5.39567848132374        2.07409571202385
C           60.38957847478757        2.75340816497823        0.61106162074953
C           61.66980429792558        3.40323935412006        0.83077911229464
C           62.61348709272831        2.45346148112003        0.66761063571752
N           60.57607641570960        1.43071296912438        0.34559973647718
C           61.90815562924677        1.22468910950463        0.36043548559346
C           62.57182931513721        0.00662952487405        0.10780334119044
C           61.94841849585497       -1.22984940477532       -0.15107449528683
C           62.59980400215453       -2.45858267991013       -0.43162703426892
C           61.63706247271209       -3.41549352544351       -0.60241457356598
C           60.36891571519858       -2.79871954369892       -0.42174623130872
N           60.60807698325172       -1.47589534765902       -0.16140021686917
C           59.11073567525472       -3.40740127374374       -0.50506314383963
C           59.10287828222866       -4.86946093324449       -0.76318634882512
C           58.50344213892885       -5.38019214190103       -1.91678846568708
C           58.49694432845764       -6.74568287189318       -2.16479810335493
C           59.08605545132443       -7.61799684490930       -1.26482782777516
C           59.68758878391850       -7.11993976179964       -0.10818327769288
C           60.30859203780238       -8.08670051276012        0.83201902805348
O           60.87191327226461       -7.50801460308490        1.90255099976951
O           60.32072347840464       -9.27986940388045        0.66934759760824
C           59.69620134412550       -5.74875291184865        0.13988745717977
C           57.88173445988263       -2.75959149384793       -0.37081677981710
C           56.59992321086300       -3.44138524137449       -0.40452415757413
C           55.65594232780805       -2.48788995160116       -0.26364957361786
C           56.36266509595657       -1.22923680867449       -0.13311319544265
N           57.69577475137009       -1.42347635058143       -0.18719036542926
H           54.60922568395303        2.65640143786813        0.27821549779696
H           56.48709101916722        4.52442664651833        0.63752840489698
H           58.38588703089854        0.77469371683844        0.23957620881463
H           60.25988566635264        5.37064638590500       -0.85439490994194
H           60.86977833702961        9.80666104808538       -1.07109594035380
H           59.17116051622985        8.69654923423617        1.61657210007415
H           58.07257144406501        7.15022640022796        3.20876157788769
H           58.07690826550724        4.72169748705631        2.78039355214128
H           61.80563800400499        4.44167881961883        1.08556825573288
H           63.68452383512511        2.54690069340015        0.74890203604349
H           63.66835599264231       -2.58445618773861       -0.49786050738218
H           61.79023538937826       -4.45517249627813       -0.84128270319980
H           59.88642605812696       -0.77984457157214       -0.00664289391306
H           58.05323674391226       -4.69748541520289       -2.62864622446950
H           58.03115539947446       -7.12703393324095       -3.06628858848483
H           59.08963523417860       -8.68737700129497       -1.44301557376909
H           61.25191806165831       -8.20293229424177        2.46434620981078
H           60.15083655261967       -5.36651931247940        1.04621463351987
H           56.46268503353584       -4.50562580855749       -0.50693853236345
H           54.58385877539709       -2.59980549486536       -0.23786565983624
C           74.31358588518552        0.00133861283131        0.09618697625329
C           74.94659447918538        1.24708238707759        0.27471186646634
C           74.30400463386407        2.50120377436540        0.43896711446124
C           75.27380073898604        3.45240100570913        0.60269012131820
C           76.53749652266997        2.80347576538877        0.55057888250151
N           76.28877570001617        1.47339544430594        0.34121650478114
C           77.80013841081824        3.39657002493740        0.67022388889625
C           77.81871714963629        4.85793294625875        0.93275617317559
C           78.40217603523729        5.73223529086455        0.02027783497490
C           78.42001697367044        7.10417941051698        0.26788724369668
C           79.05432021933410        7.98539850384237       -0.74510488868050
O           79.02124901923888        9.28569729302367       -0.41981474240663
O           79.55689408355471        7.59402869814484       -1.76707285567383
C           77.85414225643585        7.61114047811677        1.43757862906061
C           77.27330561954095        6.74241516858768        2.34802775615172
C           77.25242154623589        5.37722143220011        2.09926016127474
C           79.02447988583276        2.73555653717392        0.56354537903674
C           80.31224378556729        3.38291867623959        0.74271476702035
C           81.24828915915603        2.43012937505547        0.55502096031714
N           79.19950003815332        1.41217544826596        0.29526115552097
C           80.53113265079301        1.20229136039466        0.27283315555131
C           81.18354361226885       -0.01938510516648        0.01072541217408
C           80.55043357042736       -1.25466035320143       -0.22893703612347
C           81.19166724867044       -2.48650323938949       -0.51877904271656
C           80.22214918353264       -3.43996415130864       -0.66941159598015
C           78.96017249605636       -2.81764224750173       -0.46662744008486
N           79.20914129864536       -1.49540603024974       -0.21358550847605
C           77.69813278895380       -3.42133749008642       -0.52699799601561
C           77.68143977293681       -4.88415888966368       -0.78114850932653
C           77.06468838181409       -5.39770652290877       -1.92412842416797
C           77.05111028462431       -6.76430921504520       -2.16629545795539
C           77.65006375462033       -7.63460840145649       -1.27094364418652
C           78.26896529863771       -7.13357440469027       -0.12475275973281
C           78.89991187936700       -8.09809069831173        0.81108400976275
O           79.47819214940239       -7.51661858902469        1.87205131412842
O           78.90715730484393       -9.29194349509081        0.65292737156567
C           78.28489732715752       -5.76143635394320        0.11723637714644
C           76.47469407217795       -2.76906878045382       -0.36913948361206
C           75.18956616582207       -3.44527521937366       -0.38220668280259
C           74.25289488179131       -2.48944691597719       -0.21201628999958
C           74.96754802249471       -1.23475296012342       -0.08474716278557
N           76.29797093657551       -1.43333149263665       -0.17152359679070
H           73.23623887402600        2.64882452512457        0.42706349344163
H           75.12845034170680        4.51174928280133        0.73760429859424
H           77.00616081610553        0.76292423830119        0.24197502309118
H           78.83660235968846        5.35670804188578       -0.89970244425034
H           79.45402464554843        9.79117003793150       -1.12705330406670
H           77.87134300778348        8.67709562841315        1.62951215320527
H           76.83443437104617        7.12906335678472        3.26086411491204
H           76.80816309821682        4.70228057646157        2.82236342086116
H           80.45819481223535        4.42184884649383        0.98974540700517
H           82.32148819044635        2.52094806572640        0.60435636640143
H           82.25829472065527       -2.61679757598925       -0.60452919940213
H           80.36698383199750       -4.48068038262499       -0.90891489485203
H           78.49306144688373       -0.79681980634949       -0.04503350697404
H           76.60653271256061       -4.71683876059011       -2.63265165874623
H           76.57194373077213       -7.14805655528912       -3.05971853003381
H           77.64816270806713       -8.70473066255644       -1.44466236533334
H           79.86372555432756       -8.21028067801599        2.43161274174509
H           78.75355216465915       -5.37654152928456        1.01526035974444
H           75.04598395757955       -4.50790554427706       -0.49228233298813
H           73.18113962052186       -2.59735998191547       -0.16468732306941
