120
 energy: -206.393186925657 gnorm: 0.000523334564 xtb: 6.5.1 (b24c23e)
C           12.92205222119953        0.14194368316265        0.00301905670767
C           13.53509448863348        1.26695071970265       -0.53325729304700
C           12.88868724544104        2.40550785396185       -1.09060879581342
C           13.85491498449723        3.29271401973823       -1.47401482960114
C           15.12288204922794        2.72965549251933       -1.15240050764577
N           14.87918444038183        1.50242995613701       -0.60347938052792
C           16.38721062482995        3.29838893939031       -1.34462852695449
C           16.42334512305346        4.67128541079721       -1.90346115782363
C           17.09017165909773        4.93109621689770       -3.10157317839585
C           17.12007370173886        6.21086470710876       -3.63323871398532
C           16.48426691986459        7.25314650436183       -2.96258180297450
O           16.48986134425897        8.52195009065526       -3.44652516829271
C           15.81882253946734        7.00887705504065       -1.76261882920847
C           15.78848692293072        5.72678124776490       -1.24353142075805
C           17.60019675027715        2.67252304314361       -1.04339120524060
C           18.89354294293636        3.32200456417585       -1.15312524755981
C           19.81371172550610        2.40407222147348       -0.79053947421180
N           17.75604764408981        1.39494001299290       -0.59977231658602
C           19.08310672551724        1.19744946919040       -0.45728332136570
C           19.71984081394975        0.00382296791712       -0.06135769058803
C           19.07649973086928       -1.17936103757317        0.34900961437702
C           19.70528243934003       -2.40621314952153        0.68683549718033
C           18.73370929427130       -3.28830740474441        1.07200184095513
C           17.47921864855382       -2.62446994897983        0.98448283707219
N           17.73626767954330       -1.35966032442768        0.52543047147405
C           16.21903174660435       -3.14980913216239        1.29378600777573
C           16.18789446554419       -4.51869405474668        1.86086573062797
C           16.86920437821192       -4.81120312835767        3.04568715398017
C           16.83897040122597       -6.08419602986337        3.58627899609145
C           16.12642482544608       -7.09266909939672        2.93993541113275
O           16.11977041804276       -8.33167310196753        3.49613534767365
C           15.44682949748333       -6.81825202587215        1.75544122863970
C           15.47760596182720       -5.53789342360969        1.22499319400209
C           15.00634760973495       -2.47771473827934        1.10720861107764
C           13.70661827323987       -3.01001298008249        1.48623200669498
C           12.79335854040471       -2.09015326055676        1.11462658803755
C           13.53487595106870       -0.99036002125068        0.52382889066365
N           14.86468417301725       -1.25157761429689        0.55000763005590
H           11.83691873958009        0.15969122212076        0.01505353075996
H           11.82024529591824        2.51648844517239       -1.18555556967418
H           13.70742444739886        4.25030630354101       -1.94647376320823
H           15.60119889380270        0.86123919362327       -0.29255154264865
H           17.57438911215406        4.11842214340775       -3.63149935763472
H           17.63368444932276        6.40492765574394       -4.56879017310533
H           16.98382591843062        8.58083213108598       -4.27531044926081
H           15.33383545167512        7.82973884948684       -1.24893084607852
H           15.28395256463750        5.54099925183486       -0.30184533508604
H           19.05351970238540        4.34690660816311       -1.44659345569592
H           20.88403603027976        2.51581327207400       -0.72877290978027
H           20.76545202809154       -2.58948380040219        0.62706876069008
H           18.87065555754185       -4.31329992106683        1.37571043828704
H           17.02238481753333       -0.66224536433345        0.34275881600509
H           17.41049385495241       -4.02346752610421        3.55787172786945
H           17.35951432346925       -6.31049063633478        4.50863815370123
H           15.58676068688366       -8.94809237992514        2.97630124637310
H           14.89810645557303       -7.60752040060533        1.25275184312040
H           14.96022717673786       -5.33044924011178        0.29495271201966
H           13.54073826882113       -3.95304185409047        1.98190824447959
H           11.72066730817485       -2.11928927287501        1.22612827482333
C           30.55347600185683       -0.07426784062721        0.12100495709425
C           29.94043149882381       -1.13395866618803        0.77696659795750
C           30.58683683747631       -2.21870706745891        1.43292124136979
C           29.62060772459161       -3.02117223493243        1.97160654823477
C           28.35264160006917       -2.44605140543622        1.67209161718397
N           28.59634120612142       -1.32041963722347        0.93700719299106
C           27.08831228270621       -2.91542752963092        2.04638194708712
C           27.05217557416301       -4.12821089417076        2.89861130421142
C           26.38534681030219       -5.27637832706785        2.46886371280982
C           26.35544171049112       -6.41592727664990        3.25747218142881
C           26.99124826076878       -6.41584691392878        4.49688032883374
O           26.98565112830481       -7.50932992429603        5.30208756122713
C           27.65669555951174       -5.27453206223505        4.94069895760913
C           27.68703353721225       -4.14430146299215        4.14332807338694
C           25.87532703309849       -2.32346175757778        1.68302119423003
C           24.58198004206559       -2.76714988035960        2.16985417150724
C           23.66181266004170       -1.96556725870603        1.59406240646635
N           25.71947836119526       -1.25914007060410        0.84861363077656
C           24.39241935506721       -1.03245473108702        0.75961862923156
C           23.75568743789402       -0.05366677824161       -0.02998765347046
C           24.39903055935543        0.93161544022871       -0.80299620015379
C           23.77024938311050        1.87952147122591       -1.65197704396539
C           24.74182394133207        2.68070311267625       -2.18540815007496
C           25.99631386114138        2.24792410078426       -1.67448367333997
N           25.73926296072736        1.17753306600933       -0.85917108576155
C           27.25650186264901        2.79227918679432       -1.94893687056739
C           27.28764133366508        4.00982974862695       -2.79332778629865
C           26.60633656924998        5.16451449816609       -2.39826640559963
C           26.63657293257161        6.30790614372336       -3.17634471600169
C           27.34911567831964        6.30997891490228       -4.37416679836021
O           27.35577267531397        7.44810696140632       -5.11521592641270
C           28.02870562353513        5.16535808389283       -4.78426634351659
C           27.99792689950385        4.02651198644236       -3.99450514138538
C           28.46918518732611        2.27172627499096       -1.48466484960008
C           29.76891586194836        2.87847947182774       -1.72724942496949
C           30.68217408337968        2.06826688635483       -1.15471924364068
C           29.94065449415672        0.97636654641420       -0.54946108978385
N           28.61084651154769        1.13971892866553       -0.75497638693158
H           31.63860948329935       -0.07375177694951        0.14244176011869
H           31.65527854089967       -2.35860449154063        1.47488333594045
H           29.76809663170600       -3.93661437402644        2.52130335086793
H           27.87432788221482       -0.71201279859400        0.56600253488577
H           25.90112968449376       -5.28233645026917        1.49869587958592
H           25.84182901440391       -7.30771166754099        2.91449177022623
H           26.49168435355551       -8.23818445909450        4.90318776950826
H           28.14168311973870       -5.28665998349853        5.90896644574219
H           28.19156975474216       -3.25183857903574        4.49659252882800
H           24.42200150870633       -3.56848105176710        2.87300109735047
H           22.59148820036829       -1.97407975463123        1.72145296030272
H           22.71007984907324        1.92842052610712       -1.83844212972270
H           24.60487899180411        3.49069843535299       -2.88308752370770
H           26.45314502567999        0.64656566017344       -0.37149155183997
H           26.06504926110521        5.16904662301126       -1.45866956399609
H           26.11603308692423        7.20603747179735       -2.86760529788135
H           27.88878097998201        7.34445005551283       -5.91487646761033
H           28.57742632360703        5.16964040434550       -5.72001493295510
H           28.51530166221986        3.13211998135731       -4.32325351277668
H           29.93479772885461        3.80556692996129       -2.25213666958423
H           31.75486563304713        2.17779984361953       -1.11889468760999
C           21.12921779468623       -0.01944859083208       -0.06384591911702
C           22.34631046527315       -0.04316643856691       -0.05090523985165
