150
 energy: -229.950215651686 gnorm: 0.000219455332 xtb: 6.5.1 (b24c23e)
Fe          17.07376012925376        0.06146013984729        0.07606130445612
C           13.67626807031767        0.14349959780988        0.00323121792140
C           14.33839880127844        1.20353283956048        0.58876961644735
C           13.67707353804136        2.31874033798521        1.19772469203179
C           14.64596386908042        3.18871750282505        1.56972003928802
C           15.89697584186677        2.60328704922535        1.18378719993364
N           15.69708174436350        1.37962717035322        0.60510187913215
C           17.12052628414620        3.24888023096781        1.30495167103578
C           17.13895598964569        4.63071086091012        1.86114226789688
C           16.97368101036617        5.72676013798000        1.00974005451034
C           16.78201715857124        5.50808004881464       -0.46726802287877
C           16.98645876952406        7.01131425075256        1.54061490696187
C           17.15885749113719        7.21910249766288        2.90510359911422
C           17.18799697565317        8.61478035921442        3.46709678985824
C           17.32397069283797        6.12040843798158        3.74249403000500
C           17.31582352523015        4.82709908718661        3.23383075573272
C           17.49237483409000        3.64223447549404        4.14545866560558
C           18.32233457577908        2.67039934835274        0.92975586317932
C           19.58619206307603        3.33686922146227        1.02530223395135
C           20.53012944351423        2.43164284006336        0.67130960969848
N           18.49393466683450        1.37976277605620        0.48813420689254
C           19.84263034635252        1.21548086418973        0.36784879491256
C           20.49597902712534        0.01564276838438        0.05733539840276
C           19.80163946777934       -1.16070586491576       -0.25537088487130
C           20.44614093584971       -2.40634088664500       -0.53149188285475
C           19.47493637040942       -3.27593988581822       -0.90128228286834
C           18.23736335143959       -2.55820976369091       -0.84157103525145
N           18.45180590001528       -1.26886143015889       -0.41644967615476
C           17.02124249950022       -3.09145056727213       -1.23822170778036
C           17.00063491795462       -4.47233925785390       -1.79636209159314
C           17.24184024416973       -4.67318840070868       -3.15917765242827
C           17.52092949320141       -3.49530341071284       -4.05412103498109
C           17.22198327440320       -5.96393190310587       -3.67220714249706
C           16.96780625914089       -7.05725074059224       -2.84883461433754
C           16.94099868360684       -8.44584749160701       -3.42833259593735
C           16.72955547596987       -6.84519850784742       -1.49580780294123
C           16.74305208105400       -5.56181381990499       -0.96034105680497
C           16.48580551605243       -5.33990780770609        0.50624634519510
C           15.82139418112351       -2.40007731094976       -1.13806445056287
C           14.55512798591208       -2.94068021898841       -1.53939444730624
C           13.61404792538345       -2.03370240165637       -1.18501783350302
C           14.30766128875498       -0.94062589582529       -0.57178332742827
N           15.66018027323546       -1.16081439192387       -0.58002089249758
H           12.59224756980780        0.16263673229281       -0.00349879610353
H           12.60834848522098        2.40766215770264        1.31223632717872
H           14.54179387652580        4.14581941631992        2.05510085645609
H           15.87448623085228        4.92912991660398       -0.64907965773364
H           17.62290833502441        4.94793816542945       -0.88027048399163
H           16.70129539685726        6.45818455773301       -0.99443541401109
H           16.85735437435996        7.86231693034114        0.87990097378950
H           16.78060388590051        8.63439702165963        4.47828869721149
H           18.21785837441606        8.97695868198831        3.50958719521551
H           16.61339576636080        9.29815804672706        2.84153601378606
H           17.45868824632323        6.27343876097432        4.80829246970032
H           18.38057539379313        3.07489270631635        3.86091547377711
H           17.59874268471836        3.96082442907400        5.18195063942066
H           16.63217758984685        2.97440806809351        4.07042673797204
H           19.71797468078325        4.36245700594217        1.33016667508162
H           21.59818736876022        2.56289330087379        0.61749559239181
H           21.50600342517487       -2.58098187392996       -0.44720739099571
H           19.57158926156828       -4.31050105136164       -1.18839057899828
H           16.71042937300862       -2.76730266820960       -3.98805540730353
H           17.62547470953201       -3.81084663395662       -5.09174103942775
H           18.44237615826762       -2.99711188575719       -3.74635124190786
H           17.40850074512958       -6.12132856439341       -4.72954706263112
H           17.81346991346038       -8.61365684957325       -4.06150494566834
H           16.92928235075790       -9.19848884160376       -2.64011145178834
H           16.04852389138264       -8.57747001567985       -4.04394340563758
H           16.53132478709367       -7.69102872721685       -0.84564573564787
H           15.58684472881146       -4.73623153907453        0.64535405797951
H           17.32073750096657       -4.80419576317506        0.96150337830923
H           16.35251221266246       -6.28819555060493        1.02597568059664
H           14.42266337242298       -3.89580302561891       -2.02180123917873
H           12.54421188351508       -2.08487885453593       -1.31158628394406
Fe          27.94573042739438       -0.09699477186485        0.01230489403527
C           31.34324314033045       -0.10577401202950       -0.09697161133757
C           30.68111257443261       -1.27606172289004       -0.40833095279138
C           31.34243991042555       -2.50236555864258       -0.74103080921609
C           30.37355115206720       -3.38766619714534       -1.07492204883770
C           29.12253819775648       -2.69804096199214       -0.94808871176310
N           29.32242784759556       -1.41443425597178       -0.51844015826190
C           27.89900193981613       -3.24778922742440       -1.30766599946886
C           27.88058372196197       -4.62996335587425       -1.86300383857041
C           28.04585169536072       -4.83140688032755       -3.23618708216084
C           28.23750462896804       -3.65103797518013       -4.15057592191183
C           28.03306654818237       -6.12585916747510       -3.74244771627340
C           27.86066386035018       -7.22046730634156       -2.90171174432339
C           27.83152168678175       -8.61664909715451       -3.46245116758674
C           27.69554894996831       -7.00741419223584       -1.53680917394198
C           27.70370196221647       -5.72202182505172       -1.00845967861527
C           27.52713824830805       -5.49818598571590        0.46966881045486
C           26.69718370550826       -2.57062305279682       -1.17794757983940
C           25.43332722751949       -3.11769161845629       -1.57041543101827
C           24.48938599837671       -2.21941780464812       -1.19913803677903
N           26.52557869545664       -1.33356582467717       -0.60311156273982
C           25.17688344580526       -1.13174456388417       -0.57615522485218
C           24.52353400873868       -0.05098665100605        0.03047804895583
C           25.21786391246372        1.01434929559251        0.61925819564470
C           24.57335515054127        2.10433355026431        1.28241578622726
C           25.54455090219400        2.98784444488341        1.61763595704619
C           26.78213292536874        2.42860327841264        1.16384295879437
N           26.56769607815693        1.20391857258398        0.57792714515304
C           27.99825243274291        3.08799260396241        1.24682794331393
C           28.01885732158219        4.47083660726429        1.80010600213742
C           27.77764820386705        5.55927858985701        0.95577121369255
C           27.49855882096658        5.32892683093559       -0.50548680511838
C           27.79750878577288        6.84584453673294        1.47918946627795
C           28.05169395474321        7.06472631599919        2.83025347829159
C           28.07850213404257        8.46791924928759        3.37345571818089
C           28.28995310555390        5.97497787051639        3.65976709876188
C           28.27645462502865        4.67818868222724        3.15763380558837
C           28.53371521319680        3.50270987496101        4.06226801210110
C           29.19810588737370        2.51977076594163        0.84045202282561
C           30.46436857582949        3.18772151364930        0.92512532442246
C           31.40545234681778        2.28791837445926        0.55292026381040
C           30.71184302566260        1.07460977211135        0.23866153147532
N           29.35932071121244        1.23919662184502        0.38513410288930
H           32.42726335989174       -0.11491672743874       -0.11509683494775
H           32.41116568875773       -2.64580598432155       -0.71998006509710
H           30.47772275800398       -4.41433062304214       -1.38732999348893
H           29.14503349652458       -3.10739895388435       -3.88094915067090
H           27.39661007798006       -2.96092014972344       -4.06078747516162
H           28.31822291363836       -3.97164596186880       -5.18875461127709
H           28.16216554419849       -6.28249917025289       -4.80838070285330
H           28.23891354572896       -9.33087969576504       -2.74637190316240
H           26.80166023763438       -8.90740738803680       -3.68253699020401
H           28.40612328592434       -8.67667203756009       -4.38696617699489
H           27.56082376023804       -7.85571843571315       -0.87369337755125
H           26.63893761370619       -4.89180176410373        0.65712567987501
H           27.42076278018024       -6.44566635853640        0.99701568014529
H           28.38733387431255       -4.96434923451290        0.87788839531661
H           25.30154635134666       -4.06881273949623       -2.06045663879502
H           23.42132722859826       -2.27687350428721       -1.32882767537955
H           23.51349110438584        2.17199693907352        1.46413205281242
H           25.44789013138874        3.93313581188697        2.12672384360280
H           28.30906018980969        4.75787467842827       -0.96182775248384
H           27.39401170475256        6.27498825188034       -1.03576057914030
H           26.57711398975859        4.75635971098521       -0.62831512500615
H           27.61098923988853        7.69144284261135        0.82519830545809
H           27.20602875565198        9.02736748479178        3.03274880167568
H           28.09022227876477        8.46531025163989        4.46329732816215
H           28.97097482623622        8.98910020046787        3.02036172128254
H           28.48819318530124        6.13519387807222        4.71450227680702
H           29.43267626712368        2.97080281001673        3.74469796744393
H           27.69878643649876        2.80095740757997        4.01989683654776
H           28.66701687200262        3.82716086488257        5.09381893052721
H           30.59683054790883        4.21090555393276        1.23828831597261
H           32.47528861449013        2.41247369346248        0.49702769241908
C           21.90031577709417       -0.00978876810165        0.05786354923393
C           23.11919732948664       -0.03302516432823        0.04849680968553
