332
 energy: -580.635162211382 gnorm: 0.000734653100 xtb: 6.5.1 (b24c23e)
C           43.19193871861170       -0.06094786657624        0.00866026587190
C           43.81468015167705       -1.30134814777119       -0.04855590241692
C           43.19859968250514       -2.58468643297847       -0.10260339247844
C           44.18913276624514       -3.52498598610467       -0.14856869676685
C           45.44131616024817       -2.84610773538574       -0.12390120257100
N           45.16434116907256       -1.51095856487268       -0.06359919615412
C           46.70921631773815       -3.41512199185487       -0.15431453016954
C           47.92920662044718       -2.75515180972998       -0.12900687292341
C           49.20760020649450       -3.44324552648654       -0.16364066885269
C           50.15707368830017       -2.48568033691110       -0.12287918465378
N           48.12228045955658       -1.40921173081151       -0.06913000235324
C           49.45469083178963       -1.21621014766881       -0.06399088493835
C           50.11008308056922        0.03185787717420       -0.01064528155141
C           49.46201951943134        1.28036332218442        0.04452848747158
C           50.07311553887214        2.56232142333090        0.09747984650480
C           49.07893638121930        3.50055154483144        0.14018538328212
C           47.83082427916871        2.81760358664120        0.11481434893774
N           48.11494130305767        1.47979918043930        0.05682252336270
C           46.56413061132344        3.38709866760818        0.14372519637717
C           45.34320079751693        2.72431854289842        0.12023445917352
C           44.05867279918488        3.40635141845901        0.15534556103676
C           43.11504769678881        2.44422478948190        0.11801735426954
C           43.82401662785624        1.17575517067732        0.05991953898133
N           45.16229366822737        1.38404040449058        0.06310374015440
H           42.10710659824755       -0.06750265631228        0.01305532402828
H           42.13309853179595       -2.75123217684115       -0.10530439645448
H           44.07668682390940       -4.59657211218472       -0.19543389097968
H           45.86015248237118       -0.77332205773391       -0.03401270488244
H           46.73904500984944       -4.49895397882681       -0.20287637002560
H           49.32833094879806       -4.51409274426548       -0.21239041925733
H           51.22976061868862       -2.59659614777827       -0.13082572447526
H           51.13791447999343        2.73199909393737        0.10170127460427
H           49.18857806055996        4.57235495412915        0.18542916524070
H           47.42162924923542        0.73950828042966        0.02738909641314
H           46.53535556981593        4.47096808551137        0.19025288356339
H           43.93277679864879        4.47685647019514        0.20224340968066
H           42.04122161906683        2.54804239710432        0.12732873644821
C          163.05082192535440        0.05134690782567       -0.00676224595434
C          162.42700077005398        1.27438654940440       -0.21814311722223
C          163.04185306910236        2.54069306400603       -0.43690239816198
C          162.05039575077342        3.46740467548003       -0.59700965129897
C          160.79886493373834        2.79686150966509       -0.48088272988661
N          161.07712970807725        1.48008825496882       -0.25370917636069
C          159.53046506939140        3.35749930477349       -0.57610293312427
C          158.31097667117260        2.70606938490251       -0.46184981590884
C          157.03218752661388        3.38482013582823       -0.57547614607179
C          156.08329022391200        2.43997706347192       -0.41141880690638
N          158.11871920533756        1.37812520309364       -0.23381762648665
C          156.78639892399281        1.18748540801988       -0.19864289799175
C          156.13174434031433       -0.04452720668348        0.01072726453862
C          156.78084517149000       -1.27627977958527        0.21833698831309
C          156.17104024851832       -2.54182093728288        0.43328073979020
C          157.16617057435258       -3.46675338893334        0.59056022315715
C          158.41365081038620       -2.79176638965510        0.47611760539628
N          158.12816688597314       -1.47197301917118        0.25155345913368
C          159.68088668016605       -3.35258770735484        0.57284590641319
C          160.90140247515626       -2.69779712400806        0.46263807378365
C          162.18642284955916       -3.36974685707155        0.57967232839699
C          163.12943244627687       -2.41989122222905        0.41834597101614
C          162.41962216838112       -1.16901813289087        0.20272386384833
N          161.08146151810087       -1.37540856803230        0.23638158815497
H          164.13565667965824        0.05861543803471       -0.00717338566326
H          164.10719686671686        2.70578725314143       -0.46546278144935
H          162.16174910021803        4.52446034342657       -0.77967178160091
H          160.38210538366198        0.75191975529960       -0.12783808979256
H          159.49970770288604        4.42664778700092       -0.76026232165250
H          156.91077963942644        4.44133982572615       -0.75625143363243
H          155.01056962330662        2.54948036706352       -0.42782489346182
H          155.10638709432740       -2.71006433666126        0.46193653259698
H          157.05764973964156       -4.52445041879688        0.77038736139806
H          158.82075006512790       -0.74086624492836        0.12750598174625
H          159.71053533787085       -4.42198953172159        0.75528760346535
H          162.31309957221208       -4.42575170791068        0.76089963449678
H          164.20334222137333       -2.52153447780028        0.43745545770975
C           55.31003588356507        0.07152252116994       -0.01192010719439
C           54.08135702940380        0.06493930737579       -0.01260626240730
C           52.73784627926889        0.05664055069139       -0.01280391304706
C           51.51372179543429        0.04416774026693       -0.01224623233648
C           56.65338363219317        0.07460641126912       -0.01024309115283
C           57.87774597974290        0.07287660067140       -0.00787563482898
C           71.45473399140201       -0.00477277267333       -0.01712545803997
C           70.22587940098741       -0.00521818736214       -0.01209337108081
C           68.88306815143359       -0.00401854786077       -0.00533081330954
C           67.65864536379144        0.00059121136555        0.00232844949664
C           72.79756024613374       -0.00316253341758       -0.01861416064997
C           74.02201496416292       -0.00326379162454       -0.01798889144365
C           87.59516483430056        0.00820590441213       -0.01501342149903
C           86.36635990446908        0.00142644213105       -0.01178400822043
C           85.02366774667652       -0.00554294613540       -0.00681379412317
C           83.79926502976708       -0.00998699324050       -0.00074350813722
C           88.93787926492945        0.01245373477702       -0.01694745139391
C           90.16228819965505        0.01459718037778       -0.01659199876799
C          103.73208430789714        0.01298072693199        0.00017314754167
C          102.50334245865784        0.00127472673110        0.00340091989295
C          101.16071933019209       -0.00787495360254        0.00561509317089
C           99.93637482487492       -0.01509240241881        0.00667198248981
C          105.07475360518865        0.02167650673232       -0.00146883170223
C          106.29915172910061        0.02666484425806       -0.00194706790904
C          119.87010125301124       -0.00411031238913        0.00362453875061
C          118.64131993147116       -0.01599199562257        0.00172148899234
C          117.29862314827854       -0.02545380987079       -0.00413997379085
C          116.07426531844006       -0.03075811422867       -0.00980475684128
C          121.21282726068731        0.00808649540682        0.01011424602576
C          122.43725738125404        0.01735558176975        0.01577811783733
C          136.01330936453729       -0.01134720809803        0.00142725002553
C          134.78441170287948       -0.00827129623849        0.00113258238329
C          133.44153733389464       -0.00779521036962        0.00126176685991
C          132.21703516796197       -0.00293929780254       -0.00003699199490
C          137.35621312831739       -0.01383947845065       -0.00111639663391
C          138.58060577749430       -0.01769676925903       -0.00227986249177
C          152.16020369709042       -0.05709964539491        0.01261854526284
C          150.93148189928917       -0.05192508718655        0.00923028812717
C          149.58805523752636       -0.04938216139568        0.00724355935000
C          148.36383712908977       -0.04437666046106        0.00221250044098
C          153.50380290043464       -0.05666584475450        0.01351530586708
C          154.72801134436639       -0.05577907301636        0.01294023425701
C           59.28046573702811        0.06768461517805       -0.00345562320506
C           59.92670013431719        1.31914802920873       -0.00690607567885
C           59.31743107802571        2.60172220107800       -0.01362826941000
C           60.31414788199972        3.53962170909282       -0.01474946466119
C           61.55967110278522        2.85413148596959       -0.00918582706406
N           61.27421797237257        1.51622806728105       -0.00425156466946
C           62.82785004306988        3.42525269880023       -0.01078228363983
C           64.05267399645759        2.77632233600462       -0.00815884164668
C           65.32455934995711        3.47700176621368       -0.01458624990105
C           66.28296087468445        2.52738551992617       -0.01103514040970
N           64.25820499631295        1.43065346248179       -0.00029117584934
C           65.59223967946829        1.25076701722118       -0.00150014372347
C           66.25640121014776        0.00620653406279        0.00688911981080
C           65.61045834798527       -1.24532432162177        0.01992901290416
C           66.21998436154530       -2.52784178975388        0.03322471474268
C           65.22340428226340       -3.46570973197080        0.04233172974650
C           63.97769223946363       -2.78034448141143        0.03423836465467
N           64.26315555983156       -1.44232497131999        0.02151404503397
C           62.70965852782655       -3.35103286959499        0.03597350750185
C           61.48470631622404       -2.70181855295157        0.02505814886079
C           60.21305495659625       -3.40278058444136        0.02424052377946
C           59.25444363045133       -2.45343285406779        0.01188262111127
C           59.94471714131104       -1.17665310718088        0.00597781731365
N           61.27913409096422       -1.35641230171765        0.01352884750325
H           58.25298203020321        2.77322391307579       -0.01709769073196
H           60.20640213052380        4.61254261124792       -0.01923129696004
H           61.96417323290783        0.77222588406727        0.00058193128050
H           62.85077490991223        4.51052262983405       -0.01596472581188
H           65.43531850047421        4.55000536643400       -0.02141130969256
H           67.35461163252887        2.64809700386349       -0.01396147234415
H           67.28445651292564       -2.69922863140571        0.03568773995016
H           65.33131440179467       -4.53856514593202        0.05329902340645
H           63.57323250553864       -0.69834242913437        0.01363860027705
H           62.68638770704320       -4.43626129127300        0.04581398815405
H           60.10262123801748       -4.47580035956166        0.03190022119449
H           58.18287733380532       -2.57450223664735        0.00722854292758
C           75.42428568120995       -0.00031509600488       -0.01409681391099
C           76.06159083106378        1.25575249137886       -0.02790062480293
C           75.44275088857806        2.53365668214887       -0.04690309943831
C           76.43243182201202        3.47890743321514       -0.05179112555768
C           77.68292926775761        2.80273565532774       -0.03633928194225
N           77.40744360359813        1.46272603216191       -0.02274401477124
C           78.94688393956922        3.38283741576279       -0.03537386379798
C           80.17589580412927        2.74195449880828       -0.02430799368103
C           81.44324081730069        3.45067471206535       -0.02825470175930
C           82.40759937700322        2.50714485401220       -0.01943006757280
N           80.38979139962962        1.39764001149533       -0.01161431466748
C           81.72493495367141        1.22621816583472       -0.00881165249713
C           82.39711112466911       -0.01395793396829        0.00353285473045
C           81.76009825365544       -1.27001997825026        0.02086644855713
C           82.37901298257358       -2.54792968196988        0.03981210300960
C           81.38932899470349       -3.49303066653562        0.05502340563249
C           80.13872385734035       -2.81681824116231        0.04483972435002
N           80.41427292942018       -1.47686118261344        0.02459484314408
C           78.87476009819983       -3.39663626720302        0.05177284675320
C           77.64565618536085       -2.75571491229148        0.03749162934274
C           76.37839001609538       -3.46453110785184        0.04288453231559
C           75.41393979870138       -2.52121848250442        0.02326371154596
C           76.09642171855562       -1.24032350291350        0.00668115999226
N           77.43169782489205       -1.41161339664489        0.01546999272899
H           74.37710118602382        2.69725028063483       -0.05554290833729
H           76.31676471383130        4.55091686492714       -0.06511192025478
H           78.10293875895110        0.72402395931016       -0.00959537968794
H           78.96243182036670        4.46817752147327       -0.04599493879071
H           81.54715109754079        4.52433556532064       -0.03709307429774
H           83.47845444801762        2.63465872655639       -0.01913920935585
H           83.44470502527382       -2.71153843286461        0.04184974883937
H           81.50504328199477       -4.56499482200837        0.07152522980932
H           79.71884269755407       -0.73807079288298        0.01358596642163
H           78.85908058436856       -4.48189410044116        0.06897178026070
H           76.27459939838526       -4.53811773507197        0.05921573009378
H           74.34310176426817       -2.64882546539577        0.01994288181941
C           91.56447521267081        0.01516316619008       -0.01250656920845
C           92.20443325258387        1.26979872237802       -0.02465271206437
C           91.58816034476546        2.54900437806166       -0.04156397288822
C           92.57974359963882        3.49223925766695       -0.04675830670823
C           93.82884159389431        2.81346005553616       -0.03339018965957
N           93.55065481554941        1.47398108290039       -0.02062073448144
C           95.09415901763414        3.39043766008652       -0.03319321703209
C           96.32124171725550        2.74585496427882       -0.02218987907105
C           97.59071893623808        3.45066273736160       -0.02516486718113
C           98.55211310229886        2.50415474450459       -0.01477511657362
N           96.53088628974974        1.40086087983545       -0.00914246877022
C           97.86548054512677        1.22532897358726       -0.00469899491944
C           98.53420941049916       -0.01671101460197        0.00819688104602
C           97.89441937572850       -1.27135812432541        0.02224465571205
C           98.51071462553662       -2.55056556783263        0.03905158024712
C           97.51911813771426       -3.49374105137382        0.04998960744148
C           96.26996398584681       -2.81495080867167        0.03955685558468
N           96.54818991683970       -1.47550596348517        0.02314958803681
C           95.00459572641569       -3.39178024624667        0.04384594486383
C           93.77746665095881       -2.74719623191118        0.03131297232409
C           92.50799498414536       -3.45202612845492        0.03550198687961
C           91.54656838226552       -2.50561196232100        0.01914318779915
C           92.23313653419490       -1.22680984377916        0.00538865158009
N           93.56777773678672       -1.40229380473629        0.01297950754486
H           90.52282753780312        2.71472613510008       -0.04863939260145
H           92.46628016500561        4.56449678180859       -0.05883913461176
H           94.24488519605558        0.73407617080457       -0.00914009358450
H           95.11273369109493        4.47571564124347       -0.04367902578012
H           97.69798516400007        4.52398362013895       -0.03430906150638
H           99.62333670964361        2.62842117638859       -0.01328592174273
H           99.57607514768418       -2.71627923218948        0.04254047521125
H           97.63261868215912       -4.56597778007911        0.06385315854215
H           95.85394282045034       -0.73560473627236        0.01284868783297
H           94.98595754120704       -4.47702233146406        0.05792630624261
H           92.40076580331527       -4.52530840543361        0.04907027751275
H           90.47534171811121       -2.62987116103568        0.01632974504327
C          107.70129039693225        0.02430120374988       -0.00353120398523
C          108.34485749516681        1.27699185316220       -0.01664927715577
C          107.73260242029522        2.55818296351870       -0.02774081230474
C          108.72718602280770        3.49820231715412       -0.03881160523234
C          109.97417741629597        2.81538030227514       -0.03486683609936
N          109.69171757542203        1.47681704242772       -0.02117968740492
C          111.24133347307206        3.38819922389251       -0.04376025118799
C          112.46654979572207        2.73989897486971       -0.03998459400512
C          113.73796867771119        3.44110746466451       -0.05006217459706
C          114.69676128802102        2.49194628795491       -0.04103874659120
N          112.67251094269314        1.39435191897437       -0.02577511263145
C          114.00666753741554        1.21506116860377       -0.02573980890678
C          114.67203916167310       -0.02883662020003       -0.01202591378050
C          114.02836420465445       -1.28151708226500        0.00137265106821
C          114.64046650334187       -2.56275449926694        0.01446313194965
C          113.64578847245912       -3.50269768637484        0.02515051625704
C          112.39885435671454       -2.81981212703190        0.01908006550437
N          112.68143164121268       -1.48128681422058        0.00443812325650
C          111.13170056450784       -3.39275826765854        0.02692664927327
C          109.90645151282223       -2.74459507268334        0.02190510687790
C          108.63496876580675       -3.44575255781830        0.03118111281641
C          107.67624388170550       -2.49652784432992        0.02252432900513
C          108.36646511031566       -1.21968290543952        0.00816691584575
N          109.70056436449752       -1.39903470111631        0.00808016266276
H          106.66777491267754        2.72730466722767       -0.02713090499098
H          108.61711269629166        4.57083538125329       -0.04883360363813
H          110.38355595230266        0.73461188200442       -0.01537022012089
H          111.26327837232928        4.47341301806129       -0.05485505865925
H          113.84821027282221        4.51409336850529       -0.06225118720682
H          115.76831190301291        2.61325438468010       -0.04436718594156
H          115.70527625172907       -2.73196704067942        0.01529049893905
H          113.75571789463739       -4.57533341012580        0.03638831163191
H          111.98966083130753       -0.73902346000203       -0.00253473647122
H          111.10984778648293       -4.47796987140631        0.03858781052726
H          108.52460862121325       -4.51873646350275        0.04271380681245
H          106.60467819406341       -2.61775498905501        0.02538890847034
C          123.83946898435367        0.02062221398291        0.01629138270380
C          124.47837617909556        1.27573575287908        0.00213551873831
C          123.86185194076515        2.55485372405364       -0.01019606440959
C          124.85332892240152        3.49814165796340       -0.02227549205814
C          126.10272576652453        2.81956552417600       -0.01780195533259
N          125.82462449326262        1.48008819192897       -0.00256147062229
C          127.36768767293590        3.39723510175186       -0.02790451090720
C          128.59608630967247        2.75472372715311       -0.02468492420566
C          129.86409407524991        3.46220117808441       -0.03662094686606
C          130.82766932926523        2.51780879384727       -0.02844696548082
N          128.80881565416911        1.41034408201450       -0.01004258509593
C          130.14397904108745        1.23758747838140       -0.01179236054641
C          130.81469591164037       -0.00332200830543        0.00105710730220
C          130.17528907376959       -1.25833632179520        0.01620987489602
C          130.79180006429081       -2.53743424237399        0.02850763401667
C          129.80036275377950       -3.48076564967914        0.04136760399922
C          128.55106970096756       -2.80218734858042        0.03748075621289
N          128.82902471925732       -1.46272395240266        0.02193070478539
C          127.28615408805535       -3.38011353939700        0.04792689774519
C          126.05792614348977       -2.73764161514200        0.04435795596766
C          124.78985951875913       -3.44499291522805        0.05578019558262
C          123.82645146220182       -2.50050136335025        0.04669787987392
C          124.51038093221864       -1.22031418605108        0.03001987894902
N          125.84536394481495       -1.39314313491925        0.02925430150540
H          122.79646116151993        2.72046100554904       -0.00964980296412
H          124.73960686899987        4.57039038865681       -0.03345309758807
H          126.51850024441968        0.73977423028529        0.00370268822684
H          127.38491438425612        4.48255259578048       -0.04001919171588
H          129.96893533697036        4.53573618635471       -0.04943285494317
H          131.89864464933851        2.64424454967111       -0.03314578495965
H          131.85715951953711       -2.70311815472182        0.02730801492468
H          129.91405806843426       -4.55300859483693        0.05260404561348
H          128.13503841764245       -0.72250036160573        0.01581642896936
H          127.26903721372312       -4.46542066924836        0.06019665830764
H          124.68485700790100       -4.51850450719558        0.06879878995307
H          122.75548675420838       -2.62696015214832        0.05077472668740
C          139.98290709724466       -0.01759497506413       -0.00235996199531
C          140.62315095532239        1.23662074402042       -0.03402979522222
C          140.00769797919699        2.51598670509007       -0.06549681130675
C          140.99989692377360        3.45813927206131       -0.09196130822197
C          142.24882852219028        2.77871673582504       -0.07723801201583
N          141.96954561894768        1.43978080281225       -0.04193441956412
C          143.51404471756513        3.35539402332720       -0.09518878224608
C          144.74249160374194        2.71280952422590       -0.07941708835628
C          146.01047083393416        3.42018554963065       -0.09977523255012
C          146.97416207538311        2.47625303383881       -0.07309611506354
N          144.95525068093102        1.36905010204554       -0.04189463745909
C          146.29067841165201        1.19636978503137       -0.03685970581909
C          146.96102159218253       -0.04408619998939       -0.00001445637071
C          146.32042098114266       -1.29810300090154        0.03375455396836
C          146.93564350582719       -2.57737787913388        0.06857812762403
C          145.94332691931859       -3.51966677665379        0.08978620531831
C          144.69459318043948       -2.84031949691939        0.06884514395197
N          144.97382243480925       -1.50149566938670        0.03551367935037
C          143.42925375415754       -3.41762753376441        0.07993630268567
C          142.20099836730392       -2.77540291207958        0.06239174212349
C          140.93282394804442       -3.48266405008443        0.07821524881207
C          139.96936316963436       -2.53840793226522        0.05604210685992
C          140.65328578926139       -1.25847680504909        0.02641456801820
N          141.98829007756427       -1.43123150810248        0.03065042613099
H          138.94244931084882        2.68245863058783       -0.06737388663877
H          140.88694823409531        4.53018227750546       -0.11926602341730
H          142.66281776511434        0.69908334393874       -0.02448560320703
H          143.53167954531068        4.44038866331034       -0.12448586387588
H          146.11518372244888        4.49338277329980       -0.13011003547215
H          148.04511253119549        2.60281470863626       -0.07669983402091
H          148.00086604264158       -2.74383150375512        0.07579257788797
H          146.05612374757601       -4.59171557750951        0.11748543499216
H          144.28050310273775       -0.76091820717689        0.01427256100208
H          143.41195377224182       -4.50270135245353        0.10629201194451
H          140.82779627984601       -4.55597884253973        0.10313582724948
H          138.89835579406764       -2.66474377409008        0.05869283556463
