270
 energy: -520.498117762187 gnorm: 0.000851435114 xtb: 6.5.1 (b24c23e)
Ni          46.30345707885389       -0.04263015336732       -0.00415945594343
C           42.91047127774196       -0.13591533975795        0.02192559939885
C           43.57065174841705       -0.27672532541883        1.22441474409280
C           42.89862264315799       -0.44553578885545        2.47666206120269
C           43.85571476368812       -0.44864227719525        3.43306593557503
C           45.11355958248195       -0.29192159680673        2.76251105739026
N           44.92903784117247       -0.20056706908351        1.40567129500106
C           46.32884035518245       -0.16130041273168        3.42137216525006
C           47.53430527271899        0.00536220194046        2.75356275023689
C           48.79986226603910        0.10458463911385        3.41567441889720
C           49.74582729841653        0.14420489203789        2.44746192800271
N           47.70443367284937       -0.00343523604564        1.38740556066512
C           49.05747520408379        0.06393122559685        1.19853805232965
C           49.71760426211529       -0.00359730180838       -0.03113750000759
C           49.03850954526749       -0.07076871965579       -1.25030125569521
C           49.70596828603968       -0.15542063818399       -2.51014121333281
C           48.74411259883890       -0.11419044674211       -3.46281043097070
C           47.49113448239532        0.00245032738519       -2.78012103090088
C           46.26950322380070        0.12580649691208       -3.42877203852852
C           46.25781552340566        0.20540541742960       -4.90832134203298
C           45.61553189547544       -0.77813472365975       -5.66491320631535
C           45.60827206587172       -0.70215123034241       -7.04551888335148
C           46.23895465672650        0.36067938220713       -7.69502132033931
C           46.20164236713178        0.39954938243975       -9.17667325205022
O           46.84062838390810        1.45552936452737       -9.70230875495294
O           45.65693821731391       -0.42548592262001       -9.86510090442649
C           46.88007976728198        1.34618336168683       -6.94385612438524
C           46.89019858017306        1.26566116406246       -5.56229222262184
C           45.05894086791317        0.16992277771272       -2.74938022613774
C           43.78653942853914        0.32409283554213       -3.39246435100711
C           42.84537462343444        0.23879148999687       -2.42387583030703
C           43.54354299170407        0.04883203150884       -1.18918299369182
N           44.90083037011191        0.03692948290924       -1.39271956892931
N           47.68226974338575       -0.00490509502007       -1.41714167529270
C           46.34086470830449       -0.20989804287848        4.90362916991802
C           45.99351579643020       -1.38578083627958        5.57283492423378
C           46.00891535416758       -1.43145236465539        6.95482860169085
C           46.36726531561539       -0.30129157181339        7.69193690806619
C           46.36713375991008       -0.39941575506559        9.17142548459832
O           46.73421712920439        0.73566457123631        9.78488869546069
O           46.07102731972331       -1.39177324536818        9.78685216951111
C           46.71217908447277        0.87592985420267        7.02749793523283
C           46.70058900496248        0.91822354840794        5.64403632113499
H           41.82708852584085       -0.16175154584982        0.03067759152130
H           41.82990860133363       -0.53463636551623        2.58918601660756
H           43.73343189090372       -0.53468299839033        4.50043679227341
H           48.93764264037202        0.12394010623435        4.48428310344862
H           50.81650919566886        0.21083157659542        2.55330064579513
H           50.77392483003073       -0.23517859772940       -2.63316364854002
H           48.86170054999668       -0.16560160053262       -4.53281348199243
H           45.13608473395870       -1.61063585856603       -5.16267849454061
H           45.11617350719312       -1.46450299319676       -7.63942654676191
H           46.77038359475510        1.40717867811990      -10.66955260794643
H           47.36822857163976        2.17435681816090       -7.44382283672930
H           47.37883093053220        2.03707681688100       -4.97785745094851
H           43.64535215259132        0.48054722373857       -4.44947708707544
H           41.77274650814137        0.30001437703199       -2.51603152600991
H           45.72559732802240       -2.26701835634084        5.00112226246740
H           45.74486683439252       -2.34179511930552        7.48180462057682
H           46.70901222623280        0.58864079452224       10.74441547502832
H           46.98857430463789        1.75601722135319        7.59607811294534
H           46.95915292490872        1.83548705558285        5.12715648650682
Ni         102.00828131861736       -0.03555114307712       -0.04571321679503
C          105.40088381717223       -0.12444814716257       -0.08394216930363
C          104.74004012868673       -0.12925016972803       -1.29430992446937
C          105.41100133288448       -0.15816035012583       -2.55811373356331
C          104.45335240780169       -0.05237857918536       -3.50812899746579
C          103.19626748159146        0.03155489028929       -2.82324690449256
N          103.38170280552941       -0.03111981673404       -1.46491556141220
C          101.98138621859378        0.24227419272607       -3.46185855471055
C          100.77717526030160        0.33891488191151       -2.77812829569309
C           99.51205408220156        0.52232563654669       -3.42280547171066
C           98.56665910385841        0.45456066387757       -2.45553993766892
N          100.60741605025088        0.17212759832100       -1.42206420543350
C           99.25487578256208        0.22452278017193       -1.22530904199657
C           98.59478657939528        0.01317468907633       -0.01194213083456
C           99.27395299420122       -0.20171840762713        1.19003902798924
C           98.60668734068952       -0.43513887259447        2.43105976320909
C           99.56885550033812       -0.50897237184636        3.38146520960546
C          100.82177351784178       -0.31290899867948        2.71710110462845
C          102.04362328509542       -0.26597710343326        3.37525790894529
C          102.05660790084609       -0.36059138721919        4.85387484724006
C          102.70262617650701       -1.42426452635373        5.48918719221383
C          102.71255774408931       -1.51018195853416        6.86919957002318
C          102.08079294377096       -0.53214847617673        7.63958771604929
C          102.12195148126330       -0.66606859069286        9.11564556352371
O          101.48164054919980        0.31958745996380        9.76213495799796
O          102.67108657015137       -1.56388245376016        9.70186169609665
C          101.43544757957412        0.53252348438654        7.00990024832756
C          101.42266397958946        0.61406014075846        5.62841689406293
C          103.25365134458498       -0.14053607810432        2.70500336079043
C          104.52619855152507       -0.05948217018319        3.36103689982483
C          105.46692284391418       -0.03046508478673        2.38869432325036
C          104.76836441839326       -0.07814308656380        1.14060696196798
N          103.41119532242188       -0.11543799971886        1.34201353300030
N          100.63025695905246       -0.15848151629388        1.36291007613347
C          101.96886064908078        0.36320431125669       -4.93995887314424
C          102.30954161798698       -0.73052690605414       -5.73925312097687
C          102.29472208992711       -0.61782655158013       -7.11740523400124
C          101.94344767599962        0.59128446934552       -7.72045966624516
C          101.94445326234327        0.66315212540626       -9.20139184134092
O          101.58653331845116        1.86378293674168       -9.68091819629273
O          102.23495950919333       -0.25408945334417       -9.92642163640494
C          101.60491511762118        1.68683073163437       -6.92574674517039
C          101.61600221454094        1.57062900460653       -5.54654539983856
H          106.48426099782148       -0.14914039880215       -0.09605236858379
H          106.47945541793271       -0.23630178859967       -2.68076972274409
H          104.57485495850617       -0.01873413174196       -4.57852001550522
H           99.37392131290480        0.66705556392684       -4.48171603711357
H           97.49636801495848        0.53943967515903       -2.55183001817808
H           97.53864118322861       -0.52762244679602        2.54410223732078
H           99.45150589451201       -0.68732383632485        4.43777052026755
H          103.18309839957308       -2.19104179829251        4.89220998038256
H          103.20782197118713       -2.33540003637753        7.36901212268794
H          101.55457548452920        0.15938050025359       10.71702280854625
H          100.94626327592991        1.29522152828638        7.60413549685789
H          100.93102814128227        1.44725627043041        5.13905870858142
H          104.66775794866389       -0.02602118157578        4.42899049122856
H          106.53950594011390        0.02157132638952        2.48688293275726
H          102.57200183821958       -1.67291215772058       -5.27212656207183
H          102.55349199072212       -1.46357187688483       -7.74500257450150
H          101.61290379732630        1.82773330588003      -10.65089156011596
H          101.33407999591307        2.62775988454817       -7.38996726243320
H          101.36271311804360        2.42435394850574       -4.92816115726221
C           51.12309418091820       -0.00180381193733       -0.04169454153057
C           52.34704728648289        0.00109049978395       -0.04880734816459
C           53.69066328386483        0.00380975855023       -0.05508284068566
C           54.92075681923119        0.00397781019528       -0.05804948592079
C           56.25943528951647        0.00582223589814       -0.05866762833229
C           57.48960939467116        0.00634650625909       -0.05674438019829
C           58.83296751129444        0.00583408539974       -0.05539817339013
C           60.05704703059568        0.00774141028355       -0.05246956161976
C           69.69035474122045        0.02875126835084       -0.00349945389931
C           70.91477287423919        0.02866344452054        0.00004790157759
C           72.25750949409337        0.02834960381974        0.00409541543312
C           73.48812634075932        0.02754088385565        0.00537497293758
C           74.82612498991402        0.02533959826620        0.00546687655021
C           76.05670995630527        0.02455223050079        0.00585605198001
C           77.39945151576320        0.02644269529795        0.00482367525557
C           78.62389081089195        0.02546701005274        0.00278776349007
C           88.25585575814344        0.02577755983679        0.01766380071056
C           89.48000523452551        0.02645607775112        0.02031929390598
C           90.82321543124044        0.02508573454375        0.02029023173717
C           92.05341371800250        0.02653359333594        0.01759077967153
C           93.39198720526623        0.02529295128828        0.01611296149524
C           94.62216021382781        0.02461764879722        0.01325975252604
C           95.96562006254821        0.02137108608922        0.00675490798915
C           97.18951551390174        0.01830307368303       -0.00001931486212
Ni          64.87394015519081        0.01882140356534       -0.02737285216528
C           61.46140291607042        0.01081204158041       -0.04573753012327
C           62.13901445551866       -1.20237024976113       -0.19985795198198
C           61.47877409949755       -2.45102529373165       -0.40872300372809
C           62.43601879120540       -3.40932404395924       -0.36287887220298
C           63.67725511840062       -2.74136131372719       -0.11544619014009
N           63.48875415375164       -1.37920294194333       -0.06623912350318
C           64.88027863410217       -3.39558860377694        0.11860787661844
C           66.08109645218842       -2.71984758672634        0.29357717491701
C           67.32549316327932       -3.35997293074129        0.59303376403172
C           68.27926341241121       -2.39786904398767        0.55399380369870
N           66.26468697763717       -1.36584869780804        0.12784197836088
C           67.61369578096043       -1.17351480013461        0.24287359004236
C           68.28667644893193        0.02649873925614       -0.00872724961485
C           67.61125116046651        1.22392786482328       -0.26548077540716
C           68.27482655806524        2.45168420508182       -0.56740354360806
C           67.31735472151743        3.40968725163610       -0.61526183832103
C           66.07250450358590        2.76359940443169       -0.33072710523280
C           64.86633407115283        3.43337621824219       -0.17049365944391
C           64.85926844367602        4.91271960301323       -0.23835502709072
C           65.60546736508530        5.66758696837976        0.67040918632436
C           65.59072020408696        7.04879972481728        0.60732112910130
C           64.83479008316374        7.70066328251930       -0.36882039143399
C           64.85186608925025        9.18312124007084       -0.39684103041278
O           64.08945826618057        9.71017587237848       -1.36657161071851
O           65.48090724609177        9.87039861286087        0.36681901678685
C           64.09135428913204        6.95128528884058       -1.28109694786926
C           64.10279017973973        5.56920468549526       -1.21256369496940
C           63.66372313836199        2.77331187031970        0.04922257691371
C           62.41664464592441        3.43548361630934        0.28224403481814
C           61.46335540974695        2.47272407157382        0.31689308430278
C           62.13172011158973        1.22717593180888        0.11565310558190
N           63.48203625030966        1.41035048813233       -0.00277036293233
N           66.26023311284243        1.41020182814270       -0.16474779566014
C           64.88057671408983       -4.87511497575975        0.18388423335782
C           64.11708279675537       -5.53940642649713        1.14752955292375
C           64.11728664641385       -6.92076285311806        1.20683567571429
C           64.87579531982966       -7.66365052888636        0.30026634899654
C           64.83875429090793       -9.14274532913484        0.40044618142827
O           65.59832819255806       -9.76179569486572       -0.51547378436520
O           64.19509799448804       -9.75276462172608        1.21567543649694
C           65.63831811058711       -7.00515186505799       -0.66475458992374
C           65.64167418612591       -5.62223754227176       -0.71852205907568
H           60.41824492167733       -2.56426301550987       -0.56530680948901
H           62.32159621154901       -4.47369078962740       -0.48705640603352
H           67.44400390432533       -4.40955513865287        0.80700686091761
H           69.34060757832761       -2.49378391262316        0.71646921985202
H           69.33752959489726        2.55253575374563       -0.71765954609911
H           67.43372820918448        4.46022062860141       -0.82571807212161
H           66.18291518302506        5.16342279238822        1.43692402016344
H           66.16209181863400        7.64144289732138        1.31328986933781
H           64.15408675404244       10.67774619826950       -1.31720475139403
H           63.50643653556329        7.45302302201661       -2.04283739094383
H           63.53403599979125        4.98634776319182       -1.92824876069807
H           62.29584606873131        4.49925220027581        0.40580154327920
H           60.40059685785851        2.58113821243230        0.46129839369099
H           63.53622495778814       -4.96366259512647        1.85906948545977
H           63.53127315480772       -7.44293735406417        1.95516767594415
H           65.51899283101855      -10.72056753086744       -0.38395169598412
H           66.22622335123074       -7.57813428322232       -1.37198225906134
H           66.22451347941434       -5.11064891943689       -1.47615449617538
Ni          83.43978357990909        0.02496558271545       -0.00807666489470
C           80.02754363972757        0.02537797426900       -0.00206799144638
C           80.70129794089027       -1.19087327518887       -0.15377663606593
C           80.03684263027165       -2.43839718913602       -0.35607804863465
C           80.99282563432233       -3.39845529815919       -0.32070314625447
C           82.23735722222840       -2.73304296062502       -0.08321824120986
N           82.05142730723337       -1.37016857565606       -0.03191244179667
C           83.44025678061439       -3.38888228827899        0.14524204431483
C           84.64175794420886       -2.71418189234845        0.32253836065264
C           85.88395961350432       -3.35496846109983        0.62952849747607
C           86.83886978256649       -2.39377928321067        0.59405502531704
N           84.82733570566025       -1.36114593499445        0.15459129627287
C           86.17637993465651       -1.16993378145128        0.27463452593452
C           86.85169989999430        0.02544676982646        0.00996955554569
C           86.17907908108408        1.21990491016220       -0.26559265189338
C           86.84460502281850        2.44179515945835       -0.58600660452100
C           85.88923537953005        3.40140268074245       -0.64336379562905
C           84.64391492529845        2.76230278659176       -0.34546111319042
C           83.44075466309735        3.43785733013690       -0.18386026093336
C           83.44271780518611        4.91684041078849       -0.25877712396010
C           84.20341554102203        5.66823403426544        0.64104294104113
C           84.20363145467412        7.04905970754507        0.57114448191154
C           83.44805828895959        7.70424329723950       -0.40305648802343
C           83.48396657337003        9.18622973252074       -0.43990397967379
O           82.72607993219003        9.71749895272294       -1.41075947891012
O           84.12557875118272        9.86954713972878        0.31678674653699
C           82.68877206709642        6.95853979352440       -1.30518493598914
C           82.68525125114462        5.57663750790287       -1.22978205022383
C           82.23767738583594        2.78372375268814        0.04896506500340
C           80.99386920325651        3.45123120487276        0.28422234729067
C           80.03857082280074        2.49120024136985        0.33563659483036
C           80.70232175186771        1.24195192302000        0.14171545029609
N           82.05190146273458        1.42053090702397        0.01131163612465
N           84.82856216247171        1.41079795606458       -0.16391914056447
C           83.44323051741537       -4.86862555809084        0.20406160771789
C           82.68296178185325       -5.54058798096255        1.16475826251664
C           82.69002489542009       -6.92221422891641        1.21821069941351
C           83.45245412538556       -7.65766807654376        0.30887728825223
C           83.42377398753831       -9.13727269087262        0.40365892287943
O           84.19268560213010       -9.74835595959635       -0.50993758988163
O           82.78067954963035       -9.75416891012716        1.21428850091756
C           84.21143390144626       -6.99144592234555       -0.65369257629635
C           84.20758871693249       -5.60841711120310       -0.70183770202193
H           78.97473881870175       -2.54977857355847       -0.50290580296623
H           80.87545649436412       -4.46250612424062       -0.44499217759387
H           86.00030434412147       -4.40419133282535        0.84653238960064
H           87.89925436384647       -2.49028674086023        0.76243792315020
H           87.90702503657722        2.53804008481879       -0.74114291055453
H           86.00762054413816        4.44863659431818       -0.86852589988501
H           84.78133888908221        5.16146085652469        1.40546907342581
H           84.78712029560243        7.63874040420292        1.26963757273113
H           82.80419414605366       10.68440615673769       -1.36777097702045
H           82.10366200160593        7.46304476236782       -2.06494754496466
H           82.10481766201401        4.99669048923409       -1.93842330734388
H           80.87667169206837        4.51653770926849        0.39757885351343
H           78.97716278791641        2.60370352574519        0.48675489204246
H           82.10007794594937       -4.97068254501335        1.87929533429624
H           82.10700601335540       -7.45037314458756        1.96461502871904
H           84.11973178339868      -10.70806546173142       -0.38135838823045
H           84.80161840885589       -7.55852357281015       -1.36370278917546
H           84.78794410541208       -5.09077795062087       -1.45723039518130
