336
 energy: -648.153708001309 gnorm: 0.000636223841 xtb: 6.5.1 (b24c23e)
C           54.46194885957880       -0.35442169543020        0.15461455027208
C           55.07704103446729       -1.10057884839660       -0.84237783446903
C           54.43089652038711       -1.87931255482673       -1.84318883932595
C           55.39723774218214       -2.44566426064795       -2.62574691685709
C           56.66611058590949       -2.04549163396469       -2.11743913918630
N           56.42129379823098       -1.22620274485012       -1.05183641526611
C           57.93415048600014       -2.39923290649108       -2.59255786855171
C           57.98404059784192       -3.31253831517648       -3.76087517165250
C           58.60813795556751       -2.89070538088946       -4.93850407625467
C           58.65097622611942       -3.73687921054781       -6.03917870585417
O           59.23761024324793       -3.38928040599773       -7.22761895155964
C           58.08003646715603       -5.00526242276074       -5.97149605938705
O           58.11053213584493       -5.86021709364504       -7.04163295622406
C           57.46062517905472       -5.42949791991169       -4.79475309806555
O           56.91217068843063       -6.66758585043548       -4.73748224487329
C           57.41019130311741       -4.58238737765554       -3.69369625954251
C           59.14248815516481       -1.95591105461961       -2.04813051664514
C           60.44654801777487       -2.42103204343296       -2.48533951719099
C           61.35707955716310       -1.77543358174202       -1.72731219394481
N           59.28322394416468       -1.05876002372915       -1.03391228056456
C           60.60847698443733       -0.91855462854596       -0.82859002108826
C           61.23315305837615       -0.05014498627170        0.08950683489395
C           60.58655499852136        0.80427717380384        1.00223656240793
C           61.21748298234967        1.72974208036143        1.87530176519880
C           60.24327986380817        2.35529123479110        2.60264913803270
C           58.98661712703161        1.81896917372324        2.20624374378010
N           59.24571032923603        0.89594776932487        1.22711255294510
C           57.72124579239978        2.15567569808138        2.69844863285653
C           57.66807027557832        3.16563669459306        3.78335115659756
C           58.33009137727941        2.94165607032527        4.99107059127830
C           58.27577202807209        3.89267542855313        6.00335998169203
O           58.90977307595776        3.68129789957979        7.18246294543991
C           57.56357752110986        5.07713540715050        5.80779935956281
O           57.53136304210176        5.99806731133764        6.82165592333798
C           56.90469153088041        5.30181251726291        4.60166141625865
O           56.23008746014672        6.48840651740077        4.48154193961738
C           56.95128050914299        4.35033440843099        3.59074660584140
C           56.51671821879723        1.60876751607200        2.24097550988626
C           55.21442027084881        1.89616322596749        2.82190876077907
C           54.31366950191089        1.18768965656031        2.11126952882282
C           55.06464362032447        0.46372143745879        1.10116319678497
N           56.38873396058165        0.73109340719000        1.21809482959213
H           53.37860561757542       -0.41540907701029        0.18306186024898
H           53.36195688501743       -1.97752264144286       -1.94591509591548
H           55.24926433739591       -3.08137465924541       -3.48347934547549
H           57.14363578436006       -0.77645246957343       -0.49933934017123
H           59.04195773351930       -1.89972095069439       -5.00265312129305
H           59.61234549588487       -2.50003837879860       -7.17870226785918
H           58.57648297944080       -5.41456376053918       -7.76698910811243
H           57.05234635021586       -7.10334678363524       -5.59436747865656
H           56.94389792713048       -4.93032612355409       -2.78100282439595
H           60.61995409098034       -3.15737811665485       -3.25337471832011
H           62.43195837089083       -1.85756451032265       -1.75126544210037
H           62.28162503709430        1.89465609173863        1.92686472753913
H           60.38009812582880        3.12539553020236        3.34401996483038
H           58.53115347466151        0.36218218448368        0.74318366545701
H           58.87001585821052        2.01927234296132        5.16194209189388
H           58.75221986599730        4.44957912473343        7.75576139989679
H           56.99607711816962        6.75107348196150        6.52452902375219
H           55.80017409121908        6.55341019869039        3.61871489489741
H           56.44904961632608        4.53890970380625        2.64917211951178
H           55.03943524596946        2.53968616919530        3.66915467697471
H           53.24372183213882        1.13455319970768        2.23875696629781
C          125.24632407247844       -0.22122170927761        0.34591983729043
C          124.63533150534984        0.57338071890042        1.30730655120404
C          125.28504188404797        1.33446962008743        2.31934091650026
C          124.32293558116037        1.97520777595120        3.04785059127213
C          123.05279207742569        1.61381391163457        2.51429362068617
N          123.29311588180023        0.77747103877540        1.46099483771148
C          121.78832982676856        2.02456238590032        2.95145164260312
C          121.74632088209198        2.92953839159992        4.12688753571844
C          121.17154470368017        4.19762597863607        4.00313702603863
C          121.13659290893358        5.05006663959334        5.09937776212991
O          120.59730752363544        6.30880384269890        5.05125573781660
C          121.66624198957652        4.64357707330521        6.32146555778802
O          121.64201518420849        5.46388939011703        7.41871357177277
C          122.23677024921878        3.37594979276407        6.44741721645411
O          122.74554435908388        2.98802298923549        7.64232440808151
C          122.27951131188009        2.52326054655424        5.35041777602739
C          120.57816087296928        1.64183278975558        2.36694845472378
C          119.27408568263866        1.99976788929002        2.89560857028207
C          118.36146661795742        1.43817848830635        2.07579766705642
N          120.43475101407263        0.86800976343754        1.25607570599933
C          119.10868383115597        0.73647156658655        1.05025547444868
C          118.48222051151264        0.03945775719207       -0.00251414641708
C          119.12541869104689       -0.67651234974926       -1.02959891536896
C          118.49198728615147       -1.31176202149063       -2.13066213495329
C          119.46320212721776       -1.88732010243446       -2.90174588482626
C          120.72035858295702       -1.63469492231519       -2.28547619681366
N          120.46463694072399       -0.88906891055621       -1.16450291969087
C          121.98354815965597       -2.04572254939101       -2.72375312428568
C          122.03342850772044       -2.86308421369607       -3.96054566642923
C          121.36333028331711       -4.08505242966325       -4.02859785452440
C          121.41321055544832       -4.84433214449533       -5.19187666582224
O          120.77094964903446       -6.03542299819457       -5.26542836354484
C          122.12934903250239       -4.37928406835503       -6.29611750208061
O          122.15688788482089       -5.14688543584272       -7.43059217952998
C          122.79671105540241       -3.15886248455398       -6.22888083352613
O          123.47498344980885       -2.76636925138702       -7.35296211577453
C          122.75445412960057       -2.40103553917289       -5.06552240403463
C          123.18856281103605       -1.74142892181004       -2.07997458834643
C          124.48744799604636       -2.25107487812789       -2.49128375683488
C          125.38899331796007       -1.74336268918860       -1.62656955604521
C          124.64187931029744       -0.92882201408593       -0.68487232562818
N          123.31937162239012       -0.96033704090574       -0.98186896912424
H          126.32805074273945       -0.28388003905074        0.41016334376940
H          126.35356764137386        1.38357589665493        2.45604742021286
H          124.47454646187923        2.64446676382612        3.87903835481619
H          122.56922876354650        0.37023927357089        0.87836402914222
H          120.77005883150170        4.52570735472272        3.05155405668219
H          120.24771196717226        6.49924591228419        4.17088032563414
H          121.21151808245644        6.29461623967170        7.16106728289262
H          122.61758676122358        3.71165937321185        8.27771808295884
H          122.70789420493152        1.53596641587673        5.46554422826570
H          119.10130099501440        2.58365330369812        3.78519651177066
H          117.28576761957339        1.47503455911728        2.14084553407013
H          117.42848265390094       -1.31366864210040       -2.30715696709987
H          119.32407466909514       -2.43306102050311       -3.82053823090302
H          121.18050434562652       -0.54627160963189       -0.53228367408062
H          120.82002284327351       -4.46524492121931       -3.17316440741647
H          120.92461412187220       -6.41138271124198       -6.14791518889115
H          122.69424389425266       -4.68308571619713       -8.09237020323429
H          123.90909357549997       -1.91472936257094       -7.21239915578831
H          123.26322199039332       -1.44502301718935       -5.02591501116583
H          124.65949219562646       -2.91995138391708       -3.31927993274555
H          126.45705687733440       -1.89291222266728       -1.59898775876022
C           66.43542374505050        0.02193970557033        0.09540217131653
C           65.20717246559390        0.01621832064159        0.09853196578931
C           63.86266626642215        0.00291110027164        0.09902942751696
C           62.63898699773027       -0.01675649731275        0.09506980658259
C           67.77980817503222        0.02556039106297        0.08492006419922
C           69.00376077581980        0.02584908200508        0.07218046837289
C           82.46029161225449        0.00629222800514        0.05067062793977
C           81.23126354306258       -0.00050546217412        0.05102443009456
C           79.88805824235837       -0.00443714796235        0.04985114718297
C           78.66344880191384       -0.00997148863053        0.04399547927392
C           83.80346552560385        0.00818092533318        0.04726172727357
C           85.02812216964757        0.01454103454440        0.04194976524494
C           98.48596123293918        0.00845001535618        0.05083798765063
C           97.25698755573336       -0.00179230034462        0.05899004371172
C           95.91381386652311       -0.00788597010552        0.06239657548307
C           94.68917311155639       -0.01504173918143        0.06022838934292
C           99.82906815609408        0.01622911815439        0.03675128789847
C          101.05357083580431        0.02697296061430        0.02003725236742
C          114.50858398248175        0.05388210713821       -0.10098444537312
C          113.28044937920615        0.05227799029947       -0.11493193721622
C          111.93589636902240        0.04452392997117       -0.11896448181608
C          110.71204060799286        0.03226484045177       -0.11804247306076
C          115.85309931510810        0.05566042117107       -0.07696226502960
C          117.07643916612309        0.05618856079432       -0.04482294755735
C           70.40898195625292        0.02026735272341        0.05783068519676
C           71.02848135735127       -1.24427444749534        0.03842187529300
C           70.37175518482142       -2.50139178130189        0.06520322881091
C           71.32945541421114       -3.47746010118579        0.01416122155344
C           72.59942042502190       -2.84301771686235       -0.05387295718716
N           72.36695490731938       -1.49378213323275       -0.02536637029291
C           73.85455538254817       -3.46168245731847       -0.12052446903874
C           73.85688441326327       -4.94385934798091       -0.19250341678574
C           74.48017293314955       -5.69714675614105        0.80296356017374
C           74.48572001305357       -7.08840061359269        0.75113955036904
O           75.08032714935817       -7.83245407233326        1.71951636739920
C           73.86687821814623       -7.74543917664725       -0.31747726944159
O           73.85991710310786       -9.10095203998494       -0.39925586994480
C           73.24829014112572       -6.98397655926405       -1.31264407193803
O           72.66506508229928       -7.68880234632109       -2.33387539481672
C           73.23244252798236       -5.59732212516973       -1.25690049233059
C           75.08262057580593       -2.79816742390349       -0.12543934479982
C           76.36487438159250       -3.46641072935375       -0.25660539764334
C           77.30644012496924       -2.50128683601731       -0.20620624363316
N           75.26612187585164       -1.45225672074049       -0.02268176022566
C           76.59766395967956       -1.24588186075070       -0.05756922728950
C           77.25952020274087       -0.00448870676980        0.03867960470718
C           76.63966751893055        1.25753868019683        0.12437469517336
C           77.29679113843277        2.50926806135777        0.24460235153777
C           76.33936200336755        3.48602367573068        0.27367740635581
C           75.06875896146066        2.85826203744526        0.16347606439445
N           75.30121190194035        1.51052709210055        0.08769097962002
C           73.81385807001472        3.47915992546584        0.15066372612703
C           73.80900485330211        4.96296835490189        0.19666926627459
C           74.42722415242683        5.69762808631451       -0.81563698161446
C           74.41724880825716        7.08698003678667       -0.77482557053975
O           75.00765096348934        7.80954955355314       -1.75760790317384
C           73.79487585705159        7.74697338007753        0.28605530911498
O           73.80388247258914        9.11676528087556        0.30162109223363
C           73.18211062919919        7.01338525183374        1.29892969837728
O           72.59668650237050        7.73055023371169        2.30878556068322
C           73.18386516110378        5.62478255384246        1.25707821373023
C           72.58529598895603        2.81741859101935        0.09907073561772
C           71.30259805747646        3.49379472835956        0.02567168590237
C           70.36080562178682        2.52773625867978        0.00832240276725
C           71.06978810349098        1.26474754148575        0.05693598681350
N           72.40224676131989        1.46835764328186        0.10011723997219
H           69.30341210215201       -2.63363827067698        0.12254193684355
H           71.17140953003438       -4.54338750444484        0.03340109017189
H           73.09306193989715       -0.78542833071149       -0.04168859912671
H           74.95114269209346       -5.19852957701625        1.64257476012727
H           75.47502240687326       -7.27021543330229        2.39895667822089
H           73.38635505329535       -9.35403981404425       -1.20807601293980
H           72.26795688418119       -7.09238978438009       -2.98170419299293
H           72.75880661890891       -5.02962827696317       -2.04926904384000
H           76.50424682737399       -4.52761358893052       -0.38444268141613
H           78.37801155155364       -2.60177096143723       -0.27190868018159
H           78.36549328886709        2.63698738216789        0.30500103225091
H           76.49744828000222        4.54754269175458        0.37133822556700
H           74.57507979813799        0.80551127695899        0.01794796722553
H           74.89832423024124        5.19704966119698       -1.65171787810800
H           74.89210310969179        8.75259230372775       -1.55493716531851
H           73.33038190682981        9.40992969554924        1.09643281571238
H           72.19073026266776        7.14169746141306        2.95843019058009
H           72.71731251042448        5.06027943256938        2.05577274656136
H           71.16260724505254        4.56157347059747       -0.02188929217193
H           69.28895573844581        2.63300663889939       -0.04414799558241
C           86.43189195197242        0.01076774813896        0.03626532040553
C           87.05320924783615       -1.25379929464271        0.03602576363427
C           86.39775400912555       -2.51112815694380        0.07187594633010
C           87.35671960638223       -3.48664502382897        0.03156062775180
C           88.62603326211919       -2.85144831543492       -0.03850246130950
N           88.39190691988208       -1.50207485114142       -0.02119646985534
C           89.88164186678578       -3.46963793979442       -0.09885320511892
C           89.88459240668836       -4.95211713248872       -0.16357252786826
C           90.50507106740926       -5.70044561966260        0.83734098703446
C           90.51096842242373       -7.09192606945155        0.79215064894006
O           91.10245055637387       -7.83122036966908        1.76608043451039
C           89.89579669504356       -7.75414827405819       -0.27538793470198
O           89.88941956487889       -9.10996087272624       -0.35075504417169
C           89.28030880146686       -6.99755577495173       -1.27624463493604
O           88.70089535590374       -7.70741873356311       -2.29601450228755
C           89.26364837139265       -5.61068369738157       -1.22688236974114
C           91.10969549653730       -2.80599932242234       -0.10454280952399
C           92.39227127632017       -3.47463524862111       -0.22952255364429
C           93.33364526546673       -2.50912795495581       -0.18140936457196
N           91.29269150110315       -1.45965118702620       -0.00754762484061
C           92.62440649242752       -1.25328857183765       -0.04008714438408
C           93.28535273926934       -0.01127748455729        0.05338331285934
C           92.66395947242495        1.25051633252080        0.13353590418488
C           93.31925699939679        2.50279642196731        0.25561894794777
C           92.36076578629707        3.47893052414137        0.27580265288995
C           91.09167646845941        2.84998587144102        0.15733051097125
N           91.32552500970112        1.50233147061101        0.08722995994844
C           89.83631776786302        3.47045670099123        0.13016880529645
C           89.83215309812334        4.95447782234935        0.17029497010104
C           90.46196667023830        5.68472753637880       -0.83806698232016
C           90.45574018988819        7.07419701124118       -0.80096040430221
O           91.05804362765917        7.79233654765962       -1.77964905119613
C           89.82545740001538        7.73876928502628        0.25240333323198
O           89.83937921347781        9.10848048468623        0.26507975253758
C           89.20049815164326        7.00957400427560        1.26098203511211
O           88.60797551369146        7.73105246308351        2.26363421614696
C           89.19833641657020        5.62084726827732        1.22264466280157
C           88.60864241424358        2.80874595792790        0.06964958700965
C           87.32689398040473        3.48455694770798       -0.02171004440304
C           86.38511615707390        2.51842261531745       -0.04155421203187
C           87.09338306222534        1.25584352967392        0.02461844924673
N           88.42486465544566        1.45915340699550        0.07878176725104
H           85.32939467039552       -2.64417637838063        0.12694419169697
H           87.19976807034557       -4.55255187065524        0.05898766672851
H           89.11709597323008       -0.79290947205761       -0.04221565433710
H           90.97334048626888       -5.19770250458280        1.67600156046510
H           91.49523050221643       -7.26562920990111        2.44384066637486
H           89.41843724392616       -9.36708092667737       -1.15982882763798
H           88.30663918768043       -7.11444453678915       -2.94874135686570
H           88.79228798683647       -5.04677539337468       -2.02329313119062
H           92.53210586166648       -4.53640785332594       -0.35198344752322
H           94.40538999597182       -2.60977727528058       -0.24389457367130
H           94.38738430191857        2.63151125333536        0.32352115348991
H           92.51752461147956        4.54073006859218        0.37241475708573
H           90.60059398611439        0.79652059970368        0.01326490419901
H           90.93983970751437        5.18061733297956       -1.66815625410093
H           90.94332269087859        8.73630029163334       -1.58082599419332
H           89.35866210646539        9.40533654004688        1.05415615946821
H           88.19348119145931        7.14508621288717        2.91046031776601
H           88.72254208193775        5.05979936649078        2.01832405044514
H           87.18784929717135        4.55200586991896       -0.07860643035216
H           85.31385689667472        2.62333051300699       -0.10561361563138
C          102.45723830738406        0.02838101871953       -0.00326671432125
C          103.08287465678239       -1.23394395820188       -0.01520915725771
C          102.43267351760782       -2.49363806144861        0.03629950154674
C          103.39407566095231       -3.46588482956290       -0.01838310304043
C          104.65970550460882       -2.82656425285784       -0.11574710995294
N          104.42097375903685       -1.47781397206611       -0.09766058446604
C          105.91613128045751       -3.43899650950472       -0.20364335601191
C          105.92833547057774       -4.92180069012112       -0.25273408429086
C          106.58675331862456       -5.65117208082030        0.73814740184290
C          106.60267436561011       -7.04295271643617        0.71276499138463
O          107.23112598191140       -7.76338627412081        1.67753743966661
C          105.95859529144130       -7.72515166317576       -0.32475154713211
O          105.96017072220813       -9.08190945302765       -0.38018956118436
C          105.30577287464287       -6.98769913235470       -1.31620319261079
O          104.69982285227411       -7.71679353908489       -2.30661622547297
C          105.27960805760972       -5.60033589603049       -1.28643420363594
C          107.14017323714391       -2.76806837585036       -0.24513081496818
C          108.42194590127248       -3.42998204667615       -0.40986093865710
C          109.35973247285773       -2.46031952271970       -0.38286036294866
N          107.31880397756095       -1.42196164610832       -0.14747812036456
C          108.64903012288207       -1.20887618579957       -0.21252012367406
C          109.30654073868953        0.03308293681183       -0.11011066503223
C          108.68349480865093        1.29043167091557        0.00565852192354
C          109.33672994942994        2.54299267650632        0.13840770704087
C          108.37572292474752        3.51527024895442        0.19006709677891
C          107.10676720979492        2.88395399550362        0.08113061890893
N          107.34347498724090        1.53871897996923       -0.01491312432387
C          105.84909756543593        3.50020957238836        0.08150517385768
C          105.84057905153337        4.98345373521390        0.14490237407904
C          106.45174436822168        5.73170558871559       -0.86171548812579
C          106.44321202540823        7.12034076945816       -0.80146629857596
O          107.02739959904113        7.85624213288182       -1.77809587425223
C          105.82987387325832        7.76585460682863        0.27349922739596
O          105.84199821680073        9.13528382704999        0.30915865581182
C          105.22332833353786        7.01865404076121        1.28011079378465
O          104.64697305384949        7.72209465551654        2.30479993956108
C          105.22285574478951        5.63075020738306        1.21845404511205
C          104.62341900959947        2.83439490018635        0.02821661877883
C          103.33802863847414        3.50624834027509       -0.03842520336059
C          102.39984983637422        2.53665868547039       -0.05863139117259
C          103.11377333975572        1.27607815048276       -0.01549818124901
N          104.44496722098003        1.48410178452022        0.02356525122588
H          101.36603510235092       -2.63022128340968        0.11224818625838
H          103.24123459496738       -4.53218508862349        0.01598113711081
H          105.14342337520347       -0.76642417450591       -0.13323189345759
H          107.07762848830217       -5.13267030844104        1.55398526635077
H          107.64371669764854       -7.18492521730078        2.33230682952490
H          105.46651729413162       -9.35435491680512       -1.17049684792125
H          104.28228663252921       -7.13642202594794       -2.95615943595764
H          104.77942696829203       -5.05191241993651       -2.07604039843523
H          108.56302864944016       -4.49031141014707       -0.54290757888004
H          110.42974917319225       -2.55529171551366       -0.47600258277697
H          110.40543447114017        2.67412741827077        0.19088971452329
H          108.53048925716706        4.57591360919697        0.30155447272562
H          106.61952154601369        0.83185440250973       -0.08843726806797
H          106.91695548215796        5.24240550997401       -1.70771005681361
H          106.91379363572985        8.79639804644147       -1.56139616677833
H          105.37499867138705        9.41768571610841        1.11166479253459
H          104.24677792077679        7.12441407970121        2.94991203754298
H          104.76135481440389        5.05539547595750        2.01233419081151
H          103.19461825397363        4.57384035958093       -0.08019256677210
H          101.32745266044134        2.63798420957159       -0.10782800351350
