286
 energy: -485.185738686921 gnorm: 0.000526595061 xtb: 6.5.1 (b24c23e)
Cu          46.35783348094787        0.03068507626161       -0.03392811258171
C           42.95366395102436        0.09545211759481       -0.07580176352105
C           43.58472991796003        1.00428987913791        0.76028780267592
C           42.90591611986808        1.91150104700728        1.63959691236551
C           43.86210940044387        2.62336016492195        2.28698122796047
C           45.13408207220719        2.16759281624780        1.79690230741499
N           44.93479616129813        1.17888713328348        0.87683254202823
C           46.37676346952007        2.65416915381885        2.21419412168939
C           46.38578782980726        3.77459329217289        3.18385047871165
C           45.77677382936829        4.99417912206249        2.87484123856786
C           45.79207719506014        6.04089232093818        3.77712245066171
C           46.41263999060254        5.89656694296915        5.02418253296962
N           46.35291662506821        6.95462313100519        5.91893637955468
C           47.35083149507183        7.06183367588795        6.97494959414790
C           47.00880973499524        4.67352845330747        5.34490162149557
C           46.99987170062400        3.63467983712736        4.42986587345323
C           47.61056088756663        2.15924412668732        1.78503968712282
C           48.88557856327721        2.70916808670386        2.14765186572586
C           49.83402970774123        1.95932155674615        1.53027393178757
N           47.80246829308977        1.09483445517206        0.94334358905585
C           49.14594685048839        0.95331925768896        0.77971310270358
C           49.78508022699033       -0.03057965191470        0.00379536795303
C           49.12850577786275       -0.99241968617930       -0.78499727909019
C           49.79663297949586       -2.02401498909008       -1.51861151710581
C           48.83577049802783       -2.74185315815913       -2.15461830792598
C           47.57344751766207       -2.14625984154971       -1.82084055184690
N           47.78468976896396       -1.08695875608029       -0.97726836943647
C           46.33233133022893       -2.59781700047956       -2.27590599389047
C           46.32137782966829       -3.72495830327406       -3.23777441935531
C           46.96791478990033       -3.61899685442969       -4.47061008904323
C           46.95922806409716       -4.66598353751385       -5.37640405439230
C           46.31149375688197       -5.86340258368302       -5.05907639745383
N           46.23366170433238       -6.92714893067286       -5.94578756847522
C           47.25305752784157       -7.08228265033732       -6.97501581645121
C           45.65758244223579       -5.97322172566674       -3.82565086075800
C           45.66057296835977       -4.91835350666669       -2.93282949939685
C           45.09923311181480       -2.06315107591194       -1.89012952442757
C           43.82330261298040       -2.47213579129797       -2.41025789951299
C           42.87928154289441       -1.72160908738420       -1.78920654023502
C           43.57019568692933       -0.83798097798386       -0.89545532827731
N           44.91515099258677       -1.06413287465110       -0.97810015378266
H           41.86867531691311        0.11615803747358       -0.08929454894664
H           41.83461015701791        1.97553635540013        1.74879858224565
H           43.72434350393007        3.38082531737301        3.04173431582843
H           45.30842401585677        5.12711774621705        1.90565071457231
H           45.32298050764446        6.98506968115162        3.52091988012146
H           46.17725192180227        7.84219725450415        5.46350591477905
H           48.36935986143295        7.00305261840490        6.57443529993041
H           47.20687573260263        6.26667578894154        7.70757689978165
H           47.21359137794423        8.02234559766837        7.47160838530169
H           47.47863410691974        4.52476157812604        6.30939020418084
H           47.45786656503031        2.68767052684680        4.69439681787910
H           49.03289369440000        3.57082523779096        2.77849172418430
H           50.90542560055911        2.07596991657721        1.56630874819813
H           50.86382003327886       -2.17822789646912       -1.53146317478361
H           48.96627809941446       -3.60973040157715       -2.78062102146176
H           47.46617894807115       -2.69185189127746       -4.73269187811569
H           47.45579576279960       -4.54352264037478       -6.33115195281138
H           46.01384551868686       -7.80295940346801       -5.48673185602510
H           47.15712180557611       -6.29026695658685       -7.71881018046984
H           47.09281872799230       -8.04236896773288       -7.46557740527503
H           48.26269137398061       -7.05675437295518       -6.54927261511515
H           45.14816410648555       -6.89708559673579       -3.57239500352338
H           45.16562156206265       -5.02489530354616       -1.97364832314826
H           43.67552345513634       -3.22676370831979       -3.16596732432762
H           41.80935065904524       -1.74510408506187       -1.92491995061663
Cu         102.17348695476298        0.01677288746737       -0.02353642422614
C          105.57704947607462        0.06328130140770       -0.11579411853573
C          104.94790371173529       -0.95514015741215       -0.81605173561766
C          105.62878114580924       -2.00706731394103       -1.51389290354626
C          104.67393214270329       -2.80000803920744       -2.06131443681820
C          103.40057688288391       -2.23017184980425       -1.71516462693563
N          103.59794655372866       -1.11532567642722       -0.95249685332656
C          102.15857654640516       -2.75150090530481       -2.09068081661032
C          102.15190061513661       -3.94137741367437       -2.97387972662586
C          102.75092325399199       -3.89887209485693       -4.23607932827308
C          102.73784464886037       -5.00631040430013       -5.06271677230639
C          102.12974369931840       -6.19736650203244       -4.64722097330285
N          102.19158648870055       -7.29933175174543       -5.48722760461847
C          101.20305612815716       -8.36139354885296       -5.35572000846044
C          101.54381445248214       -6.25050953646289       -3.37918568830970
C          101.55027475280473       -5.13228574360870       -2.56294710983004
C          100.92385579828485       -2.23257619749781       -1.69377307769750
C           99.64898142326777       -2.71490450548695       -2.14300294321193
C           98.69952172665754       -1.95218004335345       -1.54319986633313
N          100.73054637074722       -1.17830112509442       -0.83974235821244
C           99.38670435743495       -0.99438869602525       -0.73111999038352
C           98.74649188075004       -0.02274926137204        0.05932453576324
C           99.40187177153773        0.96026400654864        0.82291099596814
C           98.73307891152375        1.89872920802522        1.67196564934901
C           99.69279884448004        2.68070938340118        2.22919812272546
C          100.95497915158501        2.23095834430333        1.71504137853308
N          100.74480415163411        1.17477437773331        0.86732423543879
C          102.19493370291204        2.78110404191407        2.04866564496628
C          102.20369983366496        3.96867370156092        2.93480229337539
C          101.54676793911487        5.14284280611053        2.56200691940154
C          101.55328631317985        6.25859021470069        3.38157949412622
C          102.20954633067332        6.21957474232505        4.61522273684936
N          102.28563378966592        7.32102512033296        5.45477014193373
C          101.25919977990931        8.35249621713124        5.38372498446836
C          102.87382663885464        5.04575651979299        4.99192208609616
C          102.87276108675691        3.94087185252545        4.16176093000865
C          103.42855282025431        2.29438621429336        1.60505619919317
C          104.70260834370924        2.89943263816815        1.88187797810121
C          105.64762812569086        2.13413336460594        1.28067518875783
C          104.95907102817890        1.06384252429226        0.61930025541673
N          103.61468108673181        1.18608592445878        0.83011491187575
H          106.66181070841672        0.07855810453172       -0.14571872865040
H          106.70054020776037       -2.12100231363987       -1.55946777483853
H          104.81355660596130       -3.70087825241023       -2.63693176050550
H          103.20962530107960       -2.97781651447807       -4.57900624279521
H          103.19899989601456       -4.95682848651997       -6.04355711348694
H          102.35766083922077       -7.04525856430438       -6.45362020414050
H          100.18115353177757       -7.96570593397859       -5.37646772646211
H          101.35895095482974       -8.90382058689818       -4.42233002142854
H          101.33894130373011       -9.05268936801487       -6.18742699652369
H          101.08391870843707       -7.16363039808105       -3.02167667007309
H          101.10028049150533       -5.18919074694185       -1.57764296592704
H           99.50232446892866       -3.52153624367395       -2.84298335732698
H           97.62790691833646       -2.01910432445713       -1.64312208975353
H           97.66639123437128        1.93985783538465        1.82466660975770
H           99.56167761522683        3.48039266237464        2.94013993396517
H          101.04191978283275        5.18908572697620        1.60307632339435
H          101.04840077701027        7.15886993661863        3.05340180483140
H          102.51340289736932        7.06973469679798        6.40925886863855
H          101.34523880628504        8.90171153015906        4.44527720903884
H          101.42073130151945        9.04565586565617        6.20926995298069
H          100.25273256445388        7.92541483272391        5.46059644525177
H          103.38987044084195        5.00750704453894        5.94555329234775
H          103.37587041113937        3.03267793031771        4.47548233225939
H          104.84847362167510        3.80358512804412        2.45076154869353
H          106.71664181668797        2.27820578922476        1.26717275505946
C           51.18965896934897       -0.05399782701713        0.01810061548254
C           52.41428269195578       -0.07022021316358        0.03001709764968
C           53.75658117357998       -0.08440305744178        0.04239686704429
C           54.98742325564288       -0.09387606480866        0.05040013738572
C           56.32505253750701       -0.09713448295011        0.05709653036886
C           57.55606410812813       -0.09629146786653        0.05832338497439
C           58.89830162157609       -0.08906847188172        0.05620410115555
C           60.12319489094607       -0.07667685619347        0.04964143925349
C           69.79842299555929        0.10586122888985       -0.10745963363068
C           71.02349447588989        0.11289487765026       -0.11210215352578
C           72.36573990466829        0.11277310405323       -0.11437923254378
C           73.59692347089872        0.10771375776333       -0.11317893186691
C           74.93441778309091        0.09966078682946       -0.10825444510866
C           76.16548212131252        0.09015845654733       -0.09915401520685
C           77.50754467741312        0.07920354714537       -0.08493536915042
C           78.73258355020364        0.06830660857063       -0.07173994499126
C           88.40818081796499       -0.01325191822868        0.09617043297738
C           89.63313832575191       -0.02298312671248        0.11077320839539
C           90.97526647352726       -0.02932856131129        0.12120951765499
C           92.20632330910612       -0.03451910940552        0.12508242987967
C           93.54392251268118       -0.03836936623271        0.12355883804951
C           94.77491652780826       -0.03961439340368        0.11624931844575
C           96.11726562567158       -0.03758086459276        0.10261040349584
C           97.34197016763522       -0.03282147591298        0.08573056150168
Cu          64.96071970899945        0.01905710159884       -0.03300120902123
C           61.52736965867548       -0.05988565202406        0.03937367625017
C           62.18206545736707       -1.04825981912829       -0.71818607616358
C           61.50870449680470       -2.05131094009271       -1.48579695072347
C           62.46911462027100       -2.79028965752822       -2.09816895242630
C           63.73634180632610       -2.24831341346083       -1.69925473833344
N           63.52778535044155       -1.18432413718142       -0.86203841415739
C           64.97832801837939       -2.71626939597184       -2.13538784522929
C           64.98367819883646       -3.88945480183946       -3.04315783984359
C           64.47432268157689       -5.12042886705869       -2.62160543320692
C           64.47401064655249       -6.21244061163700       -3.46886349655090
C           64.97151538247473       -6.10113595093462       -4.77292129210961
N           64.98970627194757       -7.23494657880598       -5.57241625128321
C           65.01139140371325       -7.09182999112756       -7.02219786996390
C           65.48985838195782       -4.87410566746049       -5.19640316163395
C           65.49485672271750       -3.78786281601919       -4.33765938166060
C           66.21358556725906       -2.16615256487209       -1.78527616504660
C           67.48760518702431       -2.68261993140546       -2.19616713840401
C           68.43820058920198       -1.89576498152961       -1.62998272579454
N           66.40834302567022       -1.08268282769454       -0.96968031758776
C           67.75211373369744       -0.90007486528105       -0.86376466925263
C           68.39415063468869        0.09262461854201       -0.10061470948135
C           67.73984337227586        1.06259250895780        0.68126005884483
C           68.41351852137220        2.03640461558758        1.48515210536206
C           67.45297242839681        2.77941633928170        2.09274402746321
C           66.18548822682735        2.26925925005405        1.65495875461068
N           66.39375517540726        1.21622788312900        0.80368959716206
C           64.94216832782340        2.76258917709479        2.05930435397627
C           64.93199209314774        3.94367377280869        2.95508043445042
C           64.34347581958924        3.87707093456463        4.21919347855403
C           64.32633925349722        4.97658529190894        5.06046205142840
C           64.90199049114935        6.18276181272650        4.65087976360620
N           64.86054279509337        7.33157755838741        5.42662031928865
C           64.71298416931626        7.22227101232365        6.87167556252551
C           65.48504579797769        6.25741242856495        3.37979158101607
C           65.50401356544550        5.15279174339324        2.54959469781096
C           63.70575485380341        2.23059924395679        1.68367993818331
C           62.43086998015582        2.77666641333102        2.05162527211951
C           61.48094477993916        1.98339793298758        1.49323293620508
C           62.16841382322810        0.95610453462501        0.77183764243815
N           63.51229682049114        1.12780312736798        0.89425605149721
H           60.43808292896395       -2.16312877438682       -1.54947988142654
H           62.33309858001875       -3.62022872668581       -2.77252014166450
H           64.09096166464063       -5.22272844609876       -1.61213371794459
H           64.08488982049776       -7.16546679253238       -3.12556965123584
H           64.32804445246599       -7.93831889460060       -5.26592898512582
H           64.21233566842983       -6.42897950210934       -7.37369758036557
H           65.97480995469388       -6.69486268258813       -7.34457197300483
H           64.87786383212425       -8.08097619812830       -7.46014223097592
H           65.89165411610300       -4.75990989914769       -6.19578109999064
H           65.88404570694453       -2.83640416929746       -4.68364663257807
H           67.63377436242922       -3.54627618045368       -2.82442643495511
H           69.51011137859159       -1.97956315497459       -1.71215419091269
H           69.48427052915571        2.12766114462301        1.57436244361874
H           67.58889146153949        3.59077866337894        2.78936830508024
H           63.90907965274230        2.94198468272216        4.55604375690476
H           63.86192686773893        4.88916279566605        6.03501464003934
H           65.56427612837477        8.00969983639201        5.16049891364336
H           65.45864341810557        6.54474789311038        7.30333273127727
H           64.83961699031691        8.21692104658958        7.29918315436693
H           63.71388439884005        6.86105058480263        7.11902697908077
H           65.92184590428460        7.19335781013022        3.04764247186252
H           65.94851819840702        5.22930605618711        1.56327169856361
H           62.28263293124991        3.66347724288743        2.64614969487711
H           60.40888379022520        2.08346223645555        1.55170688798333
Cu          83.57037820937401        0.02908671526809        0.00912209287148
C           80.13646779236574        0.05649287221242       -0.04952072475334
C           80.78958828672612       -0.96741340551752       -0.76041439999024
C           80.11666495861790       -2.02928003473272       -1.44444696321446
C           81.07665171004298       -2.80135043287955       -2.01571447674206
C           82.34226548558796       -2.20842231218007       -1.69159142416282
N           82.13464740710829       -1.09718909663974       -0.91792131412009
C           83.58461357843788       -2.70401404202895       -2.09664067319372
C           83.59249587882621       -3.87328323245420       -3.00661639691908
C           84.22804585783953       -5.06244677789996       -2.63776908294976
C           84.24072701214818       -6.15090118853981       -3.48904458775975
C           83.62844343314096       -6.07822684113993       -4.74637004373933
N           83.63060618412226       -7.20949011367926       -5.54866275989897
C           83.46749552137928       -7.07096977212980       -6.98976718921309
C           82.98408230784585       -4.89430948560440       -5.11692172764785
C           82.96825993796618       -3.81191390145954       -4.25392721497707
C           84.82184037394019       -2.18011614914943       -1.71161064090457
C           86.09323691961237       -2.63724489874444       -2.19430226493915
C           87.04526410865806       -1.88452531270717       -1.58510990553159
N           85.01814901122093       -1.14902495857126       -0.83142080060639
C           86.36155003914793       -0.95662120674003       -0.73688211172416
C           87.00437152149492       -0.00249263757662        0.07341957490296
C           86.34936714481684        0.96446006832132        0.85825887481902
C           87.01775818788020        1.88474380531109        1.72671311226838
C           86.05778762261987        2.66038243728720        2.29329598100097
C           84.79729661889930        2.22361561009329        1.76537548418000
N           85.00716943525613        1.18217211340048        0.90081571032860
C           83.55679175415736        2.77453321271291        2.09874361207274
C           83.55395944630264        3.95900434374780        2.98887084141268
C           82.88429485139983        3.93434795878896        4.21358979141461
C           82.88563901108826        5.03541996081806        5.05293602323034
C           83.56092342334134        6.20137343940682        4.68047131104272
N           83.54916822934457        7.35122293606423        5.45567412712737
C           83.32647227699795        7.25077874674441        6.89180998915505
C           84.22139226347872        6.23633996781671        3.44606622227180
C           84.22271130854649        5.12953550993140        2.61886010695645
C           82.32104776836913        2.29591837935232        1.65518817631166
C           81.05468889950706        2.91075799287223        1.93211664102005
C           80.10246997398309        2.14877201499426        1.33501152325591
C           80.78139119177172        1.07216007485829        0.68059970203162
N           82.12212894480253        1.18212382087995        0.88274778422808
H           79.04727904942109       -2.16555703204621       -1.46994348738704
H           80.94264162961353       -3.70352847691105       -2.59030634290840
H           84.69919381503104       -5.13640757342646       -1.66371772693730
H           84.72828621368265       -7.07139786236426       -3.18563807933393
H           84.36836729050961       -7.85962675693142       -5.30541535015014
H           82.45067899363853       -6.75197398484797       -7.22225389852468
H           84.17698555935448       -6.34764354839174       -7.40787038228190
H           83.63884607969723       -8.04720541047755       -7.44331420244367
H           82.49332728829349       -4.81079924621713       -6.07879835843340
H           82.48181124686649       -2.89247039261181       -4.56138923398759
H           86.23708633316470       -3.42091747851060       -2.92042994723033
H           88.11579376721592       -1.93863969763011       -1.70290214827183
H           88.08383299897565        1.91919485631133        1.88524620908748
H           86.18831918393521        3.44679210442678        3.01898900625549
H           82.37246543056851        3.02940609787646        4.52282244660978
H           82.35877027780694        4.98069212281783        5.99766368799987
H           84.30531452500033        7.98504007128781        5.22638857415745
H           84.00847747925522        6.52908538080655        7.35589747535410
H           83.49296727906295        8.23577104294298        7.32790394172684
H           82.29681396623573        6.95079180871414        7.09059675547598
H           84.73456296854359        7.14232343711234        3.14117149739675
H           84.73095799591772        5.17433717559062        1.66180398160224
H           80.91522149109149        3.81918975781738        2.49539349006388
H           79.03509399949965        2.30158884177976        1.32391255731133
