140
 energy: -232.779110495341 gnorm: 0.000643955783 xtb: 6.5.1 (b24c23e)
Co          15.08222646850157        0.03751454669087       -0.03273900831767
C           11.71804815887854        0.12710688461236       -0.12039892466014
C           12.36557380850648        0.81359743255085        0.88523447869182
C           11.69993245945924        1.54207763757776        1.92120334841156
C           12.65481468857102        2.24395269368442        2.57777408976511
C           13.90092452050106        1.95637894522379        1.93027690994712
N           13.72182900822957        1.01803783339516        0.94628372266285
C           15.09114649004095        2.63245814330515        2.17696210653932
C           15.10321267144391        3.76457457972085        3.12524038268281
C           14.23998981260511        4.85220854070500        2.95894075806187
C           14.26540472440131        5.91633800477551        3.83958074222536
C           15.14943971119859        5.92123294066568        4.92637141203756
N           15.17463585190617        7.03372392985023        5.75124273288514
C           15.71280547759017        6.92723624248380        7.10025812486153
C           16.01615747028769        4.83719740072949        5.09694501563971
C           15.98927644295894        3.77935588841202        4.20533290604078
C           16.27372806375551        2.26886760368233        1.54546750869952
C           17.51592360752618        2.96630512786615        1.68755050813959
C           18.46640249473661        2.19786366427607        1.10041499678664
N           16.45339253260175        1.12190047124758        0.80717279512701
C           17.80016439043183        1.04267027207789        0.59070521984627
C           18.46377537440642       -0.08041128950439        0.08736680224960
C           17.76655508377092       -1.16479664627213       -0.45314949918599
C           18.39478623297634       -2.35592083118389       -0.92814535558909
C           17.43597122730304       -3.07316277847008       -1.56384850218224
C           16.22806159880628       -2.30788687989551       -1.48776693332308
N           16.42950461999791       -1.17356082076707       -0.73445523362341
C           15.06509717731403       -2.60490936349340       -2.18548180446033
C           15.05920594820940       -3.74430795502317       -3.12558221129174
C           15.99086689458848       -3.82009757819683       -4.16359201064207
C           15.99270846603950       -4.88375236812694       -5.04895143372373
C           15.05500033634848       -5.91211670498520       -4.91301188860266
N           15.04804242588106       -7.02877043412819       -5.73300293838829
C           15.63536884958474       -6.95637346732411       -7.06378457608304
C           14.12603906000660       -5.84716438597277       -3.86648294944764
C           14.12513870435443       -4.77658467364872       -2.99340493914747
C           13.90672583561211       -1.85282976059021       -2.01794252226730
C           12.69119692952842       -2.06168112185893       -2.74796010446740
C           11.74283492193224       -1.29291203440865       -2.15991240794602
C           12.38355369658582       -0.60432413299705       -1.08193869188250
N           13.72245866864741       -0.90504905657711       -1.04508616798460
H           10.63552124539554        0.16330104639203       -0.15619871903962
H           10.63727136190843        1.51314198196171        2.10332899130222
H           12.53757877111630        2.90103759882383        3.42434161408742
H           13.56121212915888        4.87187362705559        2.11334267050614
H           13.60011915045269        6.76028535965003        3.69020938109151
H           14.31893092524347        7.57389455298422        5.71413455036374
H           16.79076334911293        6.76417959014063        7.06064399996300
H           15.24416944823212        6.10814078544405        7.65781894181579
H           15.52119621432936        7.86918271038765        7.61435525126308
H           16.71484177121143        4.81383456894378        5.92415837173034
H           16.65303772726441        2.93575974673942        4.36075988059813
H           17.63564024197480        3.92206556512817        2.17121508290052
H           19.52570664812647        2.38077916581511        1.01759232398478
H           19.43716013594353       -2.59490345302477       -0.79086935812538
H           17.52913099317364       -4.03380545169049       -2.04364720042130
H           16.71119240771288       -3.01946104511069       -4.29213113220720
H           16.72706206353896       -4.90831138805087       -5.84467345314139
H           14.16202251696389       -7.51908263808141       -5.72510822102458
H           15.23223096168048       -6.11341228080916       -7.63663844278703
H           15.40743915915342       -7.88706715136985       -7.58342135629179
H           16.71888362460823       -6.85443593712272       -6.98936375840808
H           13.40493699089999       -6.64842084092653       -3.74358161276565
H           13.40788803556384       -4.74737290371964       -2.18045241560497
H           12.58872580988086       -2.71520555758187       -3.59926494057846
H           10.69987542328024       -1.19280276295349       -2.41582450363078
Co          33.57688147762460       -0.00912559517090       -0.00624264231779
C           36.93822274853454        0.08913235039639       -0.15322603774696
C           36.29161722057565       -1.04384998126090       -0.60157629897480
C           36.95529949734759       -2.21827068585127       -1.07768572666804
C           35.99988789805784       -3.01149338880321       -1.62030455970367
C           34.75597338024422       -2.31144567971736       -1.49117112855835
N           34.93701290807275       -1.14115517945254       -0.80052022992050
C           33.56690879835967       -2.69526520791385       -2.10320377311236
C           33.55577502686084       -3.86875631621318       -2.99961021633665
C           34.42825780048213       -3.94963290061913       -4.08962609677078
C           34.40752118764524       -5.04394593941511       -4.93253812041735
C           33.51888752814437       -6.10262513548182       -4.70433869769680
N           33.50015791547369       -7.15423018280488       -5.60578729988749
C           32.95584444940298       -8.44461803461840       -5.20648613119701
C           32.64209521817606       -6.02626465217768       -3.61771762060056
C           32.66466931917834       -4.92278688989662       -2.78310671027230
C           32.38575918909979       -1.99679481554984       -1.88917997172949
C           31.14331960660727       -2.28766878030654       -2.53887542519283
C           30.19224112465857       -1.55111306266410       -1.91362183842418
N           32.20642566453306       -1.02239423593451       -0.93370747200290
C           30.85827153364152       -0.80244083218488       -0.89639689255264
C           30.19364006692198       -0.07019474029916        0.09188120375545
C           30.89023778517710        0.69188543564970        1.03465193885233
C           30.26388210668246        1.40919001610319        2.09834591179124
C           31.22189831871553        2.18968999370369        2.65678227084936
C           32.42745381160177        1.95557661962012        1.92083803399224
N           32.22433729668419        0.97967320813541        0.97243274524046
C           33.58987328687360        2.70330186973163        2.05604248940498
C           33.59546855963022        3.86810024366684        2.96430673034147
C           32.65873000357075        4.89388657874753        2.81711493830018
C           32.65433549989449        5.98786351302150        3.66466357008993
C           33.59458472784585        6.08127366815489        4.69547238721137
N           33.59895054385877        7.12231427285453        5.60945222956922
C           33.00292866122130        8.40306869307094        5.25525129960678
C           34.52894580557113        5.04976277657756        4.85487812686391
C           34.53214916662933        3.96613567564172        3.99804615145522
C           34.74765923255731        2.37547895507884        1.35825329874500
C           35.96415877983363        3.13224623666540        1.40457560067944
C           36.91240826925903        2.38984978463752        0.78392121694835
C           36.27126855353691        1.18789116434525        0.34643751919791
N           34.93005823189252        1.22257481273410        0.63877008211776
H           38.02086052580447        0.11631485126496       -0.19320566579152
H           38.01665077511188       -2.39453677473965       -1.00185822814120
H           36.11568060733293       -3.98414052736936       -2.07066560243749
H           35.11123567504396       -3.13131696512135       -4.28973965112225
H           35.08060274824500       -5.08713442513907       -5.78237802795168
H           34.36116432177805       -7.24014763015883       -6.13168244978889
H           31.87623702535825       -8.36876498924688       -5.07038115618772
H           33.41196217554459       -8.80455632355760       -4.27725750115588
H           33.15723036210307       -9.15723887618859       -6.00623950600178
H           31.93919318309865       -6.82575268379747       -3.41834864045352
H           31.99374676183105       -4.88627761702472       -1.93167796801827
H           31.02362354644134       -2.96723799840995       -3.36686635084333
H           29.13237595563660       -1.51284509584171       -2.10761440589846
H           29.22351137616047        1.32095059422123        2.36740592959503
H           31.12992148003727        2.86369377495578        3.49286896661842
H           31.93613486531429        4.84323612768381        2.00983263739980
H           31.91585794973741        6.76668062436891        3.51923913868754
H           34.48564520877634        7.22475132134448        6.08769639158875
H           33.40170723941466        8.78490710587601        4.30846411105341
H           33.22802820345636        9.11118077178958        6.05277260752483
H           31.91987664604164        8.30181797579493        5.17381609689133
H           35.25212990066630        5.10586311278863        5.66170722825214
H           35.25313918449777        3.16909675281426        4.14334094324322
H           36.06729031108873        4.10527893018052        1.85715927454588
H           37.95627669774492        2.61565306698433        0.63354342690869
C           19.86384122369855       -0.11683951288973        0.12290051441622
C           21.08862544976266       -0.13817321395594        0.15052949891113
C           22.42931106117152       -0.15322108692101        0.17277952282627
C           23.66067189403095       -0.15580990874442        0.18962897179257
C           24.99687834893929       -0.15499330569508        0.19010795822818
C           26.22827157882734       -0.14326241448610        0.18114647012893
C           27.56893597234107       -0.12282120854534        0.16256672449506
C           28.79362253177614       -0.09820347325784        0.13460048219957
