193
 energy: -381.846644441045 gnorm: 0.000287644732 xtb: 6.5.1 (b24c23e)
Fe          33.31117942528516        0.01600835558036       -0.04347222375266
C           29.92038562992492        0.05464093740839       -0.14574554254041
C           30.57635835998705        1.26770420874336       -0.13758483651338
C           29.89829697983265        2.52858784218990       -0.14785221056171
C           30.85566706757485        3.48319760238609       -0.08766965520625
C           32.11849592099667        2.80304679741042       -0.05226069557232
N           31.93369522503122        1.44724522861007       -0.08061214790529
C           33.34390857281389        3.45322212134469        0.05177387992041
C           33.35655387489483        4.93643427479404        0.09484050627168
C           32.90150467706057        5.67231765019328       -0.99918530697786
C           32.91798957065657        7.06168566265601       -0.95936603624682
O           32.48541144088993        7.78713450950187       -2.01912255854117
C           33.38343583771339        7.71915222957704        0.18072500462282
O           33.38468008525402        9.08909050797363        0.19252692630761
C           33.83379165604901        6.98350333150366        1.27410589785686
O           34.27195884173995        7.69865736586966        2.35737555910329
C           33.82609003556666        5.59473534185135        1.23446827686807
C           34.55408148654941        2.77796266163549        0.11813732237461
C           35.82718881674357        3.43220106266145        0.18704228326013
C           36.76794241158679        2.45791478833198        0.19279022988740
N           34.72106305807186        1.41351745840316        0.07414201815259
C           36.06817918560598        1.21395137898552        0.11696164172306
C           36.72282495340203       -0.02254644461077        0.05086381145810
C           36.04478960622657       -1.24399459130474       -0.04472468162464
C           36.71939800941574       -2.50106391253339       -0.13514455659431
C           35.75809605428615       -3.45361032480124       -0.18402830592250
C           34.49835468660724       -2.77388398548798       -0.11397919506832
N           34.69286325364613       -1.41391627131316       -0.04814759929550
C           33.27183642975247       -3.42157543108651       -0.12500076292833
C           33.25275050593768       -4.90448047776638       -0.16600966422714
C           33.79893336495881       -5.64210739735919        0.88435005693940
C           33.77552825287390       -7.03143171889614        0.84572365823333
O           34.29526988527295       -7.75869955722363        1.86430852585023
C           33.21315568358800       -7.68718443605475       -0.25080968645593
O           33.20831076472618       -9.05725423622549       -0.26363963535328
C           32.67265600794795       -6.94990783567942       -1.30143103988938
O           32.14331586892718       -7.66341069391232       -2.34455195784419
C           32.68555008105032       -5.56131780027426       -1.26137820815028
C           32.05735926169046       -2.74287677040027       -0.10529297392002
C           30.77959021505125       -3.39450192849411       -0.07799526987758
C           29.84186779197426       -2.41825441459336       -0.09151493900446
C           30.54788217159058       -1.17325460932436       -0.11390588819953
N           31.90186741322464       -1.38334951097909       -0.10640615040597
H           28.83643907015072        0.06708637263913       -0.17160583801231
H           28.82703768387903        2.64676313495732       -0.18618148126561
H           30.72983015649674        4.55319282184827       -0.05830508936367
H           32.55152689370686        5.17233495765948       -1.89302016508660
H           32.57478382881572        8.72956555300146       -1.80095648850570
H           33.73533565092573        9.38050025326238        1.04926296049517
H           34.56426353818911        7.10833473592957        3.06422678167331
H           34.16569320035173        5.02802695983466        2.09341506080168
H           35.97408611028097        4.49961122505865        0.21169396999334
H           37.84064337151106        2.55778424094184        0.23340266840826
H           37.79031848435287       -2.62241533113600       -0.16074193711662
H           35.88080357437308       -4.52094721821911       -0.26838321767640
H           34.22588800929629       -5.14330934491597        1.74476027431085
H           34.18298731927749       -8.70071106791832        1.65522471872143
H           32.78282489498660       -9.34680130551750       -1.08641402737876
H           31.79862176123563       -7.07152136191103       -3.02601140931693
H           32.27444259593594       -4.99341230566108       -2.08768979831014
H           30.63120101477018       -4.46159982355424       -0.04332521451371
H           28.76756068613961       -2.51248805894652       -0.08078908141561
Fe          60.13968471931963       -0.05244420785744       -0.00125016127588
C           63.53027059669189       -0.08300118688256       -0.10715913017343
C           62.87303146836691       -1.28825414532705       -0.23904601905322
C           63.54933941398145       -2.53996535015345       -0.39850525259800
C           62.59031744723653       -3.49299158801888       -0.45867643587063
C           61.32847906394700       -2.81988219809178       -0.34434692583262
N           61.51527674749210       -1.47103051153498       -0.20785866596989
C           60.10214046432403       -3.47632925245080       -0.31977087694543
C           60.08790632888224       -4.95365753100516       -0.45904421282609
C           60.53628194473480       -5.54964586052250       -1.63766334567711
C           60.51826486717675       -6.93337302233749       -1.76890461035741
O           60.94395406448358       -7.52320419370903       -2.91220736512931
C           60.05888345109238       -7.72579525843812       -0.71543223105171
O           60.05676616790678       -9.08687616478026       -0.87173171807336
C           59.61565665280587       -7.12992048785449        0.46264055383240
O           59.18375749064545       -7.97259915200712        1.45287258889974
C           59.62416941081023       -5.74679539529788        0.59376376535206
C           58.89339873845776       -2.81305132192973       -0.16625628658842
C           57.61963855567184       -3.46966201070679       -0.16857629870999
C           56.68084600135838       -2.50273404249218       -0.03478095978210
N           58.72863274259487       -1.45328823728535       -0.04109246668313
C           57.38235883070094       -1.25944942412076        0.03662240120336
C           56.72922332984591       -0.02357435679633        0.12594495977847
C           57.40784561100196        1.20068286317801        0.16796662036602
C           56.73383583730815        2.45984470145030        0.22911299131346
C           57.69574695794407        3.41195484795342        0.27421393851400
C           58.95524258593774        2.72867265216958        0.25096647812439
N           58.75968772424724        1.36975091640732        0.16749521276406
C           60.18233252462198        3.37344079847277        0.29606422767461
C           60.20323763081228        4.85229411429921        0.41453208183719
C           59.67760288970643        5.47246782008215        1.54790219529594
C           59.70261085086693        6.85792883788022        1.65831882450689
O           59.20342309467878        7.47109259486569        2.75877600982580
C           60.24503016564903        7.62787430192605        0.62790604699824
O           60.25149204937307        8.99111372925124        0.76228510672286
C           60.76460404128131        7.00786935935902       -0.50578614652515
O           61.27469009302706        7.82949482777676       -1.47622618319067
C           60.75125117629969        5.62290212097080       -0.61432448531609
C           61.39604195651255        2.69602960231972        0.23299761205132
C           62.67431459191071        3.34051002587323        0.32484860349441
C           63.61115579977157        2.37012441212780        0.20959701758862
C           62.90400351790710        1.13487890893972        0.05746501536433
N           61.55018902556595        1.34415834241339        0.08805544701307
H           64.61425131936706       -0.09379901474497       -0.13233273250102
H           64.62054992636487       -2.65460248837192       -0.44746656188607
H           62.71418361681708       -4.55885339133415       -0.55970614273769
H           60.88210185018021       -4.94372234074502       -2.46510229926762
H           60.85289689026473       -8.48517691871160       -2.81192775270517
H           59.71051748935497       -9.48103901874877       -0.05529114775536
H           58.89603610951971       -7.47311851176935        2.22829220522452
H           59.28990465323941       -5.28981097051741        1.51772678270647
H           57.47105517112205       -4.53186255850486       -0.27431308292097
H           55.60833635914489       -2.60577935178258        0.00212365878212
H           55.66285402822811        2.58327781111456        0.23135879914727
H           57.57362598281244        4.48202451249630        0.31191523898589
H           59.26556849915583        4.88392594045282        2.35736685490743
H           59.31094154728944        8.43039079891089        2.64931840990836
H           60.65804167176297        9.36849299368707       -0.03404919465645
H           61.60344587714788        7.31483713527993       -2.22494015443169
H           61.14675025255143        5.14691509738150       -1.50388498639108
H           62.82316865965247        4.39831199312649        0.46919588484552
H           64.68555130511702        2.46184321911824        0.22873662123948
C           39.34727838177216       -0.03889554399095        0.08132083866522
C           38.12290977569525       -0.03529981302899        0.07056012212553
C           40.69261893720227       -0.04158873783273        0.08527500985949
C           41.91722751550184       -0.03841120610774        0.08206117175470
C           52.76017678361636        0.00024837658488        0.17121672155050
C           51.53559846731076        0.00008698499779        0.15906979613015
C           54.10525240503087       -0.00496134977268        0.17026614009390
C           55.32959802681453       -0.01202891137161        0.15585782496484
Fe          46.72715125019343       -0.01253061643830        0.04472814891296
C           43.31597309058432       -0.03104663487370        0.06698973217546
C           43.98345795970796        1.17696493618198        0.31298298022306
C           43.30847395329047        2.39980333440806        0.61107897946502
C           44.25698651588428        3.36865411675421        0.63817653820821
C           45.50622343179357        2.73079861615021        0.35136787784036
N           45.32629245454079        1.37842523265626        0.19691945713725
C           46.71177899520356        3.40844317688132        0.20237514808974
C           46.69880452137357        4.88807049141893        0.25550712423927
C           47.43851915395633        5.56749287834880        1.22464529976948
C           47.42818416729167        6.95791776679782        1.28880043259583
O           48.13168414205805        7.63077443030127        2.23548150137532
C           46.67908188452631        7.68967690061515        0.36084701520468
O           46.65551904298621        9.04632257881026        0.39200212846851
C           45.94570128418906        7.00190360153629       -0.61041577041916
O           45.23890793033414        7.77870944521404       -1.49100502601579
C           45.94218311462991        5.61560983193698       -0.66578675878298
C           47.92658979446264        2.75856137204993        0.01730740428819
C           49.17849785797530        3.42949880124130       -0.16464381319053
C           50.13811871514795        2.47152879330190       -0.16565756209903
N           48.11774699420093        1.39874810031468        0.06481925958894
C           49.46635543109904        1.22141911899911       -0.00489535130131
C           50.13736026747640       -0.00264855416236        0.12742069426914
C           49.46698843922764       -1.23138097533662        0.19991266221485
C           50.13843633661376       -2.48468293500862        0.33986343940208
C           49.19097899483512       -3.44673441560711        0.21923852020378
C           47.94571468020988       -2.77381446927083        0.00222010397582
N           48.12643247580441       -1.41305763535271        0.03659277228668
C           46.74456620063400       -3.42210424167522       -0.26065178200708
C           46.75725732428860       -4.89749445455105       -0.40595362864901
C           47.51620542583585       -5.48915200371306       -1.41658851521821
C           47.51709652298302       -6.87122449627922       -1.56368843870037
O           48.23306882781743       -7.45753453409230       -2.55119234150496
C           46.76709854528819       -7.66285448980639       -0.69114649728995
O           46.80043162795163       -9.03764270228975       -0.86930043365215
C           46.04215024924161       -7.07515657048642        0.34398004136001
O           45.33808072106018       -7.84659032395278        1.22104780625412
C           46.02059735701393       -5.69108041980236        0.47395384738294
C           45.53283910584926       -2.75237373072118       -0.37959020596112
C           44.28484169694575       -3.39332736712374       -0.66684790850810
C           43.32374452856443       -2.44388832429780       -0.55419369817767
C           43.99087089215857       -1.22606581470568       -0.21862443122118
N           45.33885487976749       -1.41107027597944       -0.15384156742159
H           42.24653658157750        2.49209414694951        0.77259781782695
H           44.13051228456327        4.41946097191108        0.84176895690783
H           48.01138159622234        5.00970178158613        1.95678943845335
H           48.60743010486990        7.02267023729961        2.81644363792753
H           46.08461655962825        9.35743351889905       -0.32908665767346
H           44.76418201979218        7.23144064281164       -2.13007214480499
H           45.37524970668501        5.10541597273226       -1.43550074859761
H           49.30023245226844        4.49418195573373       -0.27918808024955
H           51.20503929388742        2.58702950372132       -0.26858222444956
H           51.19790250079637       -2.59903977715517        0.50323455821178
H           49.31489154327894       -4.51578337932778        0.27606046098606
H           48.08488567388544       -4.88183859976735       -2.10874620908047
H           48.10877094615149       -8.41955755202003       -2.48994223299699
H           45.92107707775082       -9.42006599497032       -0.75103655610853
H           45.65336282276660       -8.76097201973260        1.19359294120804
H           45.45409150020267       -5.24478365728678        1.28089343208995
H           44.16737242476668       -4.43423715090157       -0.92014801510201
H           42.25846773411968       -2.54456715932579       -0.68573906259725
