136
 energy: -266.737194152437 gnorm: 0.000663925016 xtb: 6.5.1 (b24c23e)
C           11.48840193570737       -0.05954540879718        0.09239282378712
C           12.08600887804050       -1.27025939439737       -0.23245715307190
C           11.42432049913990       -2.50380107813215       -0.49077086276102
C           12.37596681628525       -3.43893511668769       -0.78451638199514
C           13.64978468450484       -2.80393986756379       -0.72446873451810
N           13.42465244517685       -1.50218431020018       -0.37867508961175
C           14.90655523468898       -3.37850413937679       -0.94513723499110
C           14.92419151240408       -4.81019292842179       -1.33106538920002
C           14.29907952638393       -5.23287119439192       -2.50705491490899
C           14.31481910551673       -6.56925471487803       -2.87094294826358
C           14.95601533131505       -7.47656148047721       -2.04309062721277
S           14.98418153367199       -9.16860514334006       -2.50092744736782
O           14.83636425722003       -9.32050614965385       -3.91897376245906
O           13.58847170348827       -9.62551964307545       -1.80542644770697
O           16.06221333400940       -9.85016475272799       -1.84811033555097
C           15.58589061515853       -7.08815913695557       -0.87188070466034
C           15.56802620712415       -5.74860084262763       -0.52033214064845
C           16.12877495931824       -2.71181954999298       -0.82648826447622
C           17.41573254658731       -3.31772752523576       -1.11887930094682
C           18.34613284828475       -2.37003719517866       -0.88255159587505
N           16.29754857026496       -1.41665431486222       -0.44400821122092
C           17.62594306116298       -1.18539973340436       -0.45696531403435
C           18.27662229280349        0.01503147243315       -0.10703904982100
C           17.65398626433252        1.22079050900813        0.26806422047785
C           18.31169092290137        2.42352779621850        0.63859967527198
C           17.35455781627892        3.36095317064402        0.91184422396014
C           16.08159922832560        2.75924361926690        0.70870122226956
N           16.31439334448270        1.46407132645276        0.33011062298109
C           14.82444736688502        3.34766334003424        0.88503968172375
C           14.80769965200139        4.78037406830066        1.26479621469887
C           15.36916323272457        5.73954840913342        0.41763268491824
C           15.35105064873169        7.08059851397613        0.76318050835278
C           14.77246381739365        7.44942150565244        1.96685363828958
S           14.74034924878708        9.14631270953985        2.40610457305560
O           14.82081587577344        9.97738299606923        1.24099221845617
O           16.16925628776454        9.21605028673367        3.17438706327065
O           13.70259193491615        9.40441922682482        3.36009372782228
C           14.20795198208630        6.52237485076948        2.82781425519394
C           14.22678189472217        5.18450667248156        2.46965714426794
C           13.60021690444633        2.68907970759198        0.72946960610641
C           12.30084224439607        3.32905938390976        0.86952785089736
C           11.37830129841430        2.37092232190416        0.65164622777038
C           12.11232978068690        1.15042818360583        0.36549457572928
N           13.44730011145204        1.38203374703035        0.41183227523240
H           10.40387575199153       -0.06855299613195        0.13162294002790
H           10.35624379145968       -2.64507851026484       -0.44797152597577
H           12.21606835100014       -4.47988006757996       -1.01429485230890
H           14.15547025633600       -0.81098656883686       -0.24678652833144
H           13.81512738071609       -4.50540852953942       -3.14832138808195
H           13.84417109690541       -6.90573008647533       -3.78620340977737
H           13.35972775716736      -10.52261443733945       -2.07742346127517
H           16.08229189003288       -7.82328022996509       -0.25101451861523
H           16.04513108469432       -5.42514589576917        0.39734835272389
H           17.56473145830865       -4.32549977988872       -1.47103549028890
H           19.41708146662478       -2.43785552418475       -0.98689660844776
H           19.38149367838375        2.54497791467273        0.69160696808239
H           17.51321548233584        4.37621669311200        1.23677109440656
H           15.58471349806178        0.78722166491303        0.13249218249321
H           15.80446410917835        5.43183801143628       -0.52600806712947
H           15.77190748252183        7.83322477380100        0.10833028505309
H           16.35650140647901       10.11951933988678        3.45674345684110
H           13.75999536307222        6.84624689235116        3.75882968506832
H           13.80095452089847        4.44199719381309        3.13431604391680
H           12.14144247062884        4.37208738928127        1.09055179423597
H           10.30292853625673        2.45289955062408        0.66626381760653
C           34.23990427406409        0.00140657483703        0.10783541562788
C           33.64236606883788        1.19974059861338        0.47587922854815
C           34.30416897031257        2.38236747244841        0.91130471025914
C           33.35242511252009        3.33009392399281        1.16110716339423
C           32.07843536186009        2.75950193627328        0.87690583426463
N           32.30358495719641        1.47319049015285        0.47748553187791
C           30.82154672827104        3.36273574768739        0.99765536080996
C           30.80390263948490        4.78040723013108        1.43242505696662
C           31.42577016739044        5.76428007520909        0.65936256792553
C           31.41010330687689        7.08951757374701        1.06193982237975
C           30.77234877030427        7.41702420416883        2.24756049647481
S           30.74442367826754        9.09345799786187        2.75963873554942
O           30.88718075999767        9.97619412779274        1.63884187278330
O           32.14322490525986        9.11201298051980        3.58635832297521
O           29.66959904576607        9.32255723510548        3.67893683928217
C           30.14571818384844        6.46469687266864        3.03478905955619
C           30.16336365136524        5.14333380986768        2.61999892258215
C           29.59929145121367        2.73480321429073        0.74463397408333
C           28.31230397290659        3.40320058119749        0.82048811907718
C           27.38190016785624        2.47518587449023        0.51597421977909
N           29.43053219799742        1.43498009909832        0.37819443764872
C           28.10214954612337        1.24608996122527        0.24439432495476
C           27.45140046840572        0.04384696724202       -0.09929338269979
C           28.07395614125840       -1.17642459290037       -0.42413992053839
C           27.41627178565731       -2.39139754621469       -0.75243743020975
C           28.37344971000970       -3.33071570220337       -1.01894823955772
C           29.64644205554568       -2.71387028260268       -0.86804264190734
N           29.41358745396678       -1.41592041606754       -0.49910945914652
C           30.90359532762713       -3.30652502709240       -1.02948898444479
C           30.92040856143113       -4.72172431511729       -1.47022401893697
C           30.36251132904874       -5.08214943327327       -2.69976972563973
C           30.38087017861452       -6.40130451935757       -3.12121690824618
C           30.95599184075542       -7.35483261116920       -2.29680868293398
S           30.98836299817676       -9.02508478443748       -2.82844616795622
O           30.91133818754124       -9.10798798754538       -4.25735032698431
O           29.55774095581500       -9.49224088780515       -2.21843499508085
O           32.02397415147177       -9.75240762547767       -2.15596448498608
C           31.51685656106982       -7.02896422537215       -1.07263691038226
C           31.49793534268595       -5.70574031636175       -0.66361257385145
C           32.12782109155619       -2.66652495215368       -0.80970028230111
C           33.42714832381549       -3.28375712199607       -1.02956633700795
C           34.34976253013319       -2.35598218451501       -0.70618078504554
C           33.61583534567195       -1.16933414683429       -0.30178839090819
N           32.28083728396148       -1.39016939068850       -0.38526057593139
H           35.32447319307538       -0.01146501441722        0.14467205872316
H           35.37239059244854        2.47995765944941        1.02065726254227
H           33.51235305489157        4.33411557658077        1.51929320994149
H           31.57268332519003        0.81723007625530        0.22303425791561
H           31.90715767638471        5.48959606888005       -0.27200780229006
H           31.87818446380507        7.86164235497144        0.46431772359125
H           32.37183136090987       10.01659200698325        3.83245407612170
H           29.65192679081732        6.75662945674444        3.95307310730575
H           29.68859357392461        4.38098068405905        3.22647200610672
H           28.16333494372683        4.44359240885714        1.05969120069884
H           26.31092995404695        2.58807054074258        0.46425933927720
H           26.34644065482556       -2.52191713239353       -0.77428258194043
H           28.21477542886040       -4.36289689946537       -1.28529316697890
H           30.14324759659382       -0.73809354786385       -0.30476006484519
H           29.92995459237925       -4.31887088878898       -3.33610058729704
H           29.96293509831399       -6.68936598541716       -4.07763401593742
H           29.37347432080874      -10.40936054785358       -2.45506414477833
H           31.96212023702553       -7.79919441797899       -0.45552129830515
H           31.92098042835885       -5.43146364309567        0.29566894029572
H           33.58646134598693       -4.28542344597933       -1.39488549354499
H           35.42513213669074       -2.43340587159287       -0.73699720086261
C           23.47815417278230        0.04482231679386       -0.14413193045738
C           22.24985678276745        0.04042433490703       -0.14645446382709
C           20.90587996011298        0.03436448956555       -0.14084267799648
C           19.68199437441938        0.02373030125049       -0.12867065382092
C           24.82211862893535        0.04699531739665       -0.13541379327058
C           26.04603118188390        0.04842132774869       -0.12229299185978
