183
 energy: -317.252828636003 gnorm: 0.000629390163 xtb: 6.5.1 (b24c23e)
Ni          23.73690457834195       -0.01528065992720       -0.00149495220833
C           20.33967882342568       -0.03584979547571        0.04930158737986
C           20.99118263909819       -1.24374211459635       -0.08472976806937
C           20.30875045898884       -2.49728949093601       -0.18671073198597
C           21.26346529059477       -3.45400195994592       -0.25286314774342
C           22.52902259073515       -2.78246677537947       -0.19891438968904
N           22.35159511918907       -1.42502176605645       -0.09914112090676
C           23.75044653387435       -3.44258604725513       -0.18677952609805
C           24.96490134366440       -2.77683774138977       -0.10113598449696
C           26.23242125578862       -3.44211133929429       -0.11112158507680
C           27.18126571553570       -2.47734233138866       -0.05937778001567
N           25.13749490951191       -1.41122724200725       -0.04984755399677
C           26.49239393017991       -1.22661457005457       -0.02854077936204
C           27.15517874404335        0.00389537828697       -0.02203167119442
C           26.47882425215789        1.22699621167679       -0.01679347604915
C           27.15209789214118        2.48610379446401       -0.04944747141490
C           26.19260971827703        3.44081934652818       -0.00389651983220
C           24.93533283277528        2.76027887515261        0.06854850975897
C           23.71482193235634        3.41337479892899        0.16565927022106
C           23.70443988789091        4.89555786083199        0.23722795847092
C           23.11195447965330        5.64728961091974       -0.77781045339600
C           23.10328495404208        7.03244160090638       -0.70926200880705
C           23.68000871923761        7.68143369178409        0.37395537841895
C           24.26899051960164        6.93968719857697        1.38887311918330
C           24.28447509523913        5.55455945595302        1.32153587061178
C           22.50178025912660        2.73865894124926        0.20297979571103
C           21.23335975779319        3.39109850768177        0.34721246800307
C           20.28844619915717        2.42293042806012        0.31276910776255
C           20.98056523568739        1.18033305807245        0.15665840838723
N           22.33773193403739        1.37929306586088        0.10823142177151
N           25.12287340857780        1.39612361541750        0.03688793039983
C           23.75669221141797       -4.92520075066281       -0.26030787801979
C           23.30422911722464       -5.57824884014466       -1.40690483206675
C           23.31226595538213       -6.96366275376300       -1.47239131661627
C           23.76696917601826       -7.71100823840760       -0.39449846185988
C           24.21634038966736       -7.06755864696885        0.75057904234430
C           24.21387965117021       -5.68235183031008        0.81854210447250
H           19.25617459836276       -0.04311950047546        0.07451235716008
H           19.23627295024372       -2.60991474279364       -0.19571614256945
H           21.13592380758262       -4.52215006251824       -0.32007072663692
H           26.36824676439118       -4.50987133983603       -0.16354238297993
H           28.25375349237443       -2.58599092742213       -0.05285507137918
H           28.22184841483802        2.60703180738494       -0.10535527756801
H           26.31412388173432        4.51143840382986       -0.02356611830442
H           22.67028390228498        5.14153791573145       -1.62923302929469
H           22.64441209056219        7.60754745012436       -1.50583792330661
H           23.67035151210194        8.76418399100768        0.42718002376924
H           24.71821782578196        7.44196134034734        2.23843203000553
H           24.73518048141521        4.97564640479647        2.11994427675174
H           21.09804799062097        4.45378386293780        0.46615711263520
H           19.21705338334517        2.52014336531479        0.38788915147255
H           22.95916978133898       -4.99512993675667       -2.25346160335327
H           22.96280537118887       -7.46171591441115       -2.36998825491485
H           23.77094302018265       -8.79384859477674       -0.44667460784330
H           24.56959328981747       -7.64692546037471        1.59638463991756
H           24.55483355057069       -5.18063986169435        1.71730952987643
Ni          60.90056680791800        0.04868704734736        0.02393678202596
C           64.29828690077949        0.05844100623343        0.07432576453574
C           63.64957929485437        1.27247158948930       -0.00801713728424
C           64.33479524506571        2.52760220532321       -0.06050601270075
C           63.38218885717148        3.48814186280994       -0.09295767853435
C           62.11522042173619        2.81770472170050       -0.06529985969637
N           62.28956241046038        1.45709941020509       -0.01716517616935
C           60.89566714307451        3.48000367796499       -0.02660576740204
C           59.67965316377101        2.81520524642797        0.03946741311622
C           58.41424359544697        3.48404753687457        0.06369972922010
C           57.46277558468918        2.52065234234620        0.08456971429010
N           59.50326088058406        1.44914282003515        0.03959439186282
C           58.14797008560086        1.26765858445136        0.06216771831833
C           57.48172029820643        0.03964721938818        0.02261615307220
C           58.15480726016638       -1.18434425457716       -0.02689153807242
C           57.47779855046434       -2.43924458177938       -0.10908272555596
C           58.43500514239140       -3.39725840438687       -0.11571680173984
C           59.69473142643749       -2.72355251098714       -0.02491662753925
C           60.91411850739335       -3.38333919738688        0.02951393058541
C           60.92090613484586       -4.86748469184066        0.02521238774557
C           61.49151115263962       -5.56677980797599       -1.03855928370846
C           61.49492372385293       -6.95365617910323       -1.04300008536160
C           60.93547665015291       -7.65645898501311        0.01542181290156
C           60.36936037240444       -6.96693675750125        1.07902244510207
C           60.35851221399598       -5.58010839036235        1.08448218725567
C           62.12923226183323       -2.71461480900269        0.09272874500512
C           63.39609791050825       -3.37699829538343        0.20004833734448
C           64.34345188069932       -2.41070209730044        0.21522957553620
C           63.65443095053698       -1.15993297611964        0.12343177298495
N           62.29670485756360       -1.35270038309895        0.06630455979128
N           59.51069817470111       -1.35891468915369        0.00776678480952
C           60.89471760384971        4.96455108560269       -0.04660568074352
C           61.33399332345655        5.65581440041985       -1.17570687866176
C           61.33272353821034        7.04270211638951       -1.19146904557823
C           60.89881280009412        7.75310079907824       -0.08053980953207
C           60.46282814976723        7.07129506376231        1.04736319639432
C           60.45776728481859        5.68450500157104        1.06540520518482
H           65.38177765696203        0.06208272417400        0.10071343569957
H           65.40752271449051        2.63815459061009       -0.06366111468111
H           63.51158238159243        4.55783817272752       -0.12065298610202
H           58.28189146168118        4.55351491341521        0.05430796328641
H           56.39066555782379        2.63182068600060        0.10283646447767
H           56.40725668488081       -2.55519076348611       -0.15994074197942
H           58.31054896180733       -4.46568938865987       -0.18163183830238
H           61.92013376969541       -5.01839673859892       -1.87002702466632
H           61.93592739743627       -7.48784796856287       -1.87727397739378
H           60.94080454996512       -8.74054250299184        0.01144230847361
H           59.93412274055839       -7.51152387625801        1.90958236081166
H           59.92503357358542       -5.04212620797308        1.92018894980703
H           63.52832149992710       -4.44488321608794        0.26284084711908
H           65.41468772232953       -2.51434225170695        0.28378065898620
H           61.66396989900319        5.10147014301096       -2.04723085235704
H           61.67153166734937        7.57090286476377       -2.07581310203116
H           60.90080585771145        8.83712616104877       -0.09358124108598
H           60.12617138868534        7.62177888207503        1.91882845266097
H           60.12692112942566        5.15246165160035        1.95038634404573
C           28.56001866195122        0.01129017024137       -0.02462595105937
C           29.78437489371761        0.01387638012631       -0.02000004613517
C           31.12742590642986        0.02051767799591       -0.00826308737613
C           32.35791386162207        0.02918566692294        0.00049010414013
C           33.69608339892964        0.03205209742074        0.01497754700403
C           34.92666861545340        0.03849333243345        0.02604208254654
C           36.26953348835231        0.04250121453740        0.03614191418050
C           37.49408801603155        0.04511668897861        0.04447352267056
C           47.14241282065105       -0.00187692892028        0.01135351430244
C           48.36697482227260       -0.00321859945640        0.01246588764102
C           49.70991114531835       -0.00119208746575        0.01349972052144
C           50.94059454660938        0.00343988185375        0.01669890323370
C           52.27886176014934        0.01052724428018        0.01929345854459
C           53.50939534045234        0.01907845714494        0.02086350598460
C           54.85251035567720        0.02798919144977        0.02077169753067
C           56.07683787434347        0.03519122113934        0.02076995510713
Ni          42.31822656046740        0.02302752051080        0.02946341800455
C           38.89798636250468        0.04051362395973        0.04604540174072
C           39.56561996489509       -1.18219271620479        0.16802484577081
C           38.88846882383764       -2.42830445075018        0.33391907518911
C           39.83935829725652       -3.39333880410199        0.30998415964803
C           41.09380557528895       -2.73185002168380        0.12057066838222
N           40.91694842789889       -1.36736511016012        0.07090515661626
C           42.30004453409675       -3.39863828982314       -0.04249982860832
C           43.51375692551480       -2.73912021990768       -0.17701186482417
C           44.76128392054146       -3.40565330870155       -0.39258556609341
C           45.72255199996442       -2.45072459233425       -0.37528843995597
N           43.70522179382841       -1.37993855953729       -0.07001679712242
C           45.05857080955383       -1.20539398032709       -0.15831192069210
C           45.73850226104832        0.00435033936371        0.01356964857963
C           45.07240313798544        1.22138500959285        0.18881016690820
C           45.75190232079385        2.45962311660479        0.39791251185225
C           44.80141626933604        3.42499201496323        0.42288709317913
C           43.54451409899685        2.77209303329419        0.21997715170098
C           42.33631107164334        3.44504420694109        0.10061472015097
C           42.34542843688629        4.92818398047463        0.13312635599966
C           41.69562422093893        5.61560441958038        1.15862299332928
C           41.71128172455612        7.00193111590425        1.19139649768128
C           42.36798329495628        7.71632034390427        0.19865317641601
C           43.01275829621601        7.03886848601433       -0.82724962913251
C           43.00588835310963        5.65246754835365       -0.85971237548469
C           41.12071895851602        2.79114210651453       -0.04610725977395
C           39.87079944103464        3.46537582169160       -0.22029532537088
C           38.91000355410734        2.50995210174905       -0.23482910443477
C           39.57634264929052        1.25691559945289       -0.07820885806610
N           40.93048029564109        1.42853476321598        0.00477138799906
N           43.72023249958891        1.41078029305351        0.11249099295029
C           42.29079766963250       -4.88215141114657       -0.07273050806274
C           41.63367280223009       -5.56325603465924       -1.09759566151202
C           41.62744740661855       -6.94980728767863       -1.12438891766570
C           42.26862454522461       -7.67012837738521       -0.12584194026243
C           42.92137177816880       -6.99861382468754        0.89888104586243
C           42.93727142961901       -5.61212200830961        0.92486167694421
H           37.82218635011860       -2.53483461656720        0.45144939229439
H           39.71374624895712       -4.45876394478317        0.41278454694353
H           44.87541421692578       -4.46721270327427       -0.53949809899381
H           46.78789305569871       -2.56358690752497       -0.49560913627556
H           46.81944632639555        2.56130162980043        0.50801176210471
H           44.92931332585421        4.48516129987518        0.56816611300658
H           41.19107989818175        5.05792923736625        1.93973718193628
H           41.20900615681138        7.52660165368112        1.99650924993186
H           42.37740254857086        8.80006097682517        0.22455125452547
H           43.52402899461726        7.59262815793534       -1.60682533319842
H           43.50183391048910        5.12407905375556       -1.66627585188845
H           39.75440098014938        4.53205085596840       -0.32091957147369
H           37.84346461251636        2.62730110079777       -0.33917759845971
H           41.13965678404364       -5.00086014210693       -1.88201594058479
H           41.11955266995209       -7.47001449706083       -1.92886390991457
H           42.25942731624209       -8.75399151745722       -0.14610738261544
H           43.42038359125992       -7.55704049190945        1.68301987529564
H           43.43966819153043       -5.08785254832558        1.73009261951243
