80
 energy: -145.675829775789 gnorm: 0.000698098595 xtb: 6.5.1 (b24c23e)
Co           5.24294129946003       -0.01261121176113       -0.00307797105474
C            1.83395241676956       -0.05877259065951       -0.04841869100010
C            2.51107706403813       -0.89982366316898       -0.90333596722283
C            1.85616214537386       -1.79628499978325       -1.80950592514217
C            2.83177201408256       -2.45399476834706       -2.47681341612558
C            4.07858637100876       -1.95737457453181       -1.97508881282066
N            3.87464213813625       -1.00250802942409       -1.01246231252455
C            5.30427319480208       -2.40303509907082       -2.41847881733720
C            6.50464171842412       -1.93462402518830       -1.93542770526336
C            7.77308795677988       -2.41035822009035       -2.39637328809393
C            8.71585181052683       -1.73111968800181       -1.70236504263148
N            6.66534904057878       -0.96966836341206       -0.96788183431251
C            8.01840584697808       -0.84321509202468       -0.82374872527643
C            8.67304326171798        0.03342012696858        0.04337962235035
C            7.97376761170154        0.89889313129992        0.88591784282418
C            8.62360039994834        1.80759295793012        1.77944973831754
C            7.64460151149659        2.47251481027232        2.43643651940332
C            6.40193649742712        1.96462903599703        1.94054448119450
N            6.61442838177842        0.99893267445305        0.98397346038804
C            5.17624563978786        2.40272463318074        2.38737159120998
C            3.97560486386854        1.91654796973058        1.91857244919615
C            2.70285089518455        2.37451593627634        2.39137764131403
C            1.76343460439975        1.68213334121099        1.70748974324661
C            2.46606562350138        0.80415547815139        0.81910769913690
N            3.82298381000385        0.95342344048916        0.95450256403497
H            0.75054058642855       -0.07574202188630       -0.05989827400225
H            0.78604352720733       -1.89192474672722       -1.90386564619173
H            2.74078682138400       -3.20996925525907       -3.24065727455400
H            5.32497185560881       -3.16638475674928       -3.18746873305151
H            7.90211848832906       -3.16735093484368       -3.15342762487483
H            9.78936605670609       -1.80763315563520       -1.76584060663146
H            9.69278206085710        1.90752951556393        1.87620655933861
H            7.73303421456927        3.23763990735842        3.19118831559368
H            5.15446972490719        3.17125382888395        3.15120034796418
H            2.57132218574829        3.12980239512080        3.14997722023720
H            0.68899306100189        1.74251810861316        1.77927210008829
Co          23.84356867042411        0.00699642186767        0.00521211054030
C           27.25240465822732        0.07524653319569       -0.00142046319802
C           26.57403788465638        1.27205874064368       -0.06626583323870
C           27.22757851156278        2.54567908030408       -0.13304259321724
C           26.25096045956312        3.48035332356384       -0.18117691629730
C           25.00491422135137        2.77409262443583       -0.14324623373170
N           25.21032171225191        1.42014539633278       -0.07505388951309
C           23.77850299289434        3.40076265774070       -0.17016749422660
C           22.57894516832367        2.72773754786960       -0.12913542564692
C           21.30970190676622        3.38826687506982       -0.15064118627518
C           20.36809401574727        2.41759550187210       -0.09618003814602
N           22.41984215734032        1.36259817565654       -0.06367069128832
C           21.06701861185298        1.17040232315941       -0.04384397877233
C           20.41359545278311       -0.06232669452513        0.00671618580318
C           21.11399120599180       -1.26873300550708        0.04902381962270
C           20.46561167345053       -2.54290575907644        0.09915209265503
C           21.44567894934813       -3.47565911932102        0.13966418638916
C           22.68754410476319       -2.76481563349289        0.11484936156820
N           22.47349805061504       -1.40713067932478        0.05583847734534
C           23.91396865971952       -3.38810962141174        0.15153335406497
C           25.11382041618196       -2.71165949724102        0.13047686141316
C           26.38734402135078       -3.36717708252569        0.17107615369505
C           27.32567355922470       -2.39389594152718        0.12809086911609
C           26.62163111487598       -1.14744323700181        0.06142636074820
N           25.26492983876230       -1.35037516585001        0.06389013561687
H           28.33580168773937        0.09656747203877       -0.00028409766608
H           28.29754765184109        2.68102643375070       -0.14032959267561
H           26.34084884839999        4.55370940042025       -0.23649667984578
H           23.75651137368104        4.48293024210880       -0.22412561275390
H           21.17947664376732        4.45754018703257       -0.20077856506476
H           19.29443536139804        2.51548702296728       -0.09272610419194
H           19.39661529170254       -2.68335642531748        0.10261553180315
H           21.35853929794854       -4.54959385617531        0.18392546200856
H           23.93697225071815       -4.47051095794210        0.20071944334588
H           26.52008038199904       -4.43614351599665        0.22512153210698
H           28.40022713744690       -2.48578160222569        0.13876589066641
C           10.07703005643697        0.04166074674229        0.06394235982687
C           11.30152292024417        0.02790190194494        0.06782790273106
C           12.64400551562256        0.00997664500960        0.06622516012194
C           13.87450903437067       -0.01910133018150        0.05589703878133
C           15.21193427241168       -0.04558191125430        0.04683017296993
C           16.44255258322410       -0.07083782291291        0.03621476922613
C           17.78502525177666       -0.08221286870868        0.02209695665268
C           19.00960972071262       -0.08305762114583        0.01542397920252
