254
 energy: -466.077993706586 gnorm: 0.000645373452 xtb: 6.5.1 (b24c23e)
Ni          42.99661410035477        0.02841647961848        0.03460328156014
C           39.60652622683746        0.03997721213020        0.15380391066965
C           40.26110325693436        1.25299853514891        0.20669326991942
C           39.58886805692406        2.51462598535340        0.27112575948362
C           40.54874010843305        3.45942136161449        0.40542192115627
C           41.80636284627568        2.77143816933770        0.43947113491778
N           41.62162651745574        1.42183895852312        0.27457758668834
C           43.02650435054384        3.39412762939626        0.67087878332746
C           43.04094715471921        4.85041519655605        0.94314722189009
C           42.37281140608206        5.36926559519559        2.05457151152221
C           42.38475712300693        6.72827177457344        2.31246592995684
C           43.06415383301764        7.59828227888670        1.45457771082062
C           43.07426556278401        8.99801463888443        1.71409247028141
N           43.08196029285993       10.12947357982407        1.92372541857825
C           43.73312641590466        7.08389321141657        0.33994542731694
C           43.72240642840415        5.72302311703480        0.09177891323003
C           44.23252048081537        2.70552249960428        0.66787354627945
C           45.49428908774819        3.30693317658687        0.97702165855344
C           46.43823855851811        2.35327472866671        0.79057880963687
N           44.39970665614187        1.38046172413493        0.33491257640100
C           45.75109961467095        1.17247875411387        0.37431156431927
C           46.40838145750995        0.00355182593517       -0.02050869471957
C           45.72241605821139       -1.15035073595486       -0.41080504897750
C           46.37797715050125       -2.33125681792752       -0.87463018971346
C           45.41281653553452       -3.26313640464250       -1.06302514877985
C           44.17088924604174       -2.65112552809562       -0.69893856396394
N           44.36949994031434       -1.33737409360113       -0.33853723039971
C           42.95707705614221       -3.32474982276134       -0.66392870946069
C           42.93651432096947       -4.77330869175304       -0.97430013339449
C           42.20005377740976       -5.25276173796785       -2.05996334355825
C           42.17629733163768       -6.60443067593247       -2.35313682020809
C           42.88770676877076       -7.50671348544130       -1.55669935053661
C           42.86111002277701       -8.89906370087398       -1.85224240378265
N           42.83861165504310      -10.02451682757701       -2.09097720431346
C           43.62427007464353       -7.03195338602522       -0.46740963895618
C           43.64872925070846       -5.67816457012749       -0.18394916714161
C           41.75954339430457       -2.69721503443075       -0.34353917832200
C           40.50240336816886       -3.37816858784800       -0.23420449060365
C           39.56320860814709       -2.43199551914657       -0.00044925394836
C           40.24770861274747       -1.17594486059188        0.04082063295872
N           41.59812403369818       -1.35114941014825       -0.13348937028886
H           38.52365976411939        0.04304074993850        0.19603665955067
H           38.51933461649080        2.64059759229070        0.21655352640773
H           40.42927116916326        4.52844447919275        0.47395131276450
H           41.85440348207656        4.69620978760754        2.72809537817030
H           41.86900919245827        7.12311582498274        3.17994804433312
H           44.25827795152752        7.75590917818980       -0.32864845845134
H           44.23317612777809        5.32857331480850       -0.77936436052436
H           45.62951521485887        4.32591440433002        1.30083341220347
H           47.50623722885390        2.42818920654722        0.91629299585280
H           47.44070197027435       -2.41980092404421       -1.03228660098940
H           45.52173884140672       -4.27445171107727       -1.41915895514054
H           41.65546694834187       -4.55457667172556       -2.68554834241956
H           41.60733987846746       -6.96862664309413       -3.20052499753055
H           44.17379313243958       -7.72911581905073        0.15420386741913
H           44.21130930877206       -5.31485558252730        0.66861725966717
H           40.36986314466508       -4.44428141758421       -0.32157309667630
H           38.49999704350702       -2.55312441368980        0.13241230626152
Ni          98.70481458513953        0.00822863858164        0.05214925099248
C          102.09547505647187        0.00100535775164        0.16485866395200
C          101.44051002704289       -1.20687287091318        0.28585723284012
C          102.11279510662921       -2.46322365954836        0.41773729077691
C          101.15285669091804       -3.39975709004868        0.60029619382546
C           99.89514006266786       -2.71104004065477        0.59687725474572
N          100.07996792377301       -1.37181178141300        0.36201043872929
C           98.67486848808117       -3.32144585559977        0.85787002836642
C           98.65998383184423       -4.76231802067543        1.20271316839651
C           99.32597949349993       -5.22477866313991        2.34000684081864
C           99.31299393606496       -6.56907162503455        2.66598446064575
C           98.63456683809203       -7.48092468817063        1.85190093101563
C           98.62278813625916       -8.86566802983068        2.18213166757928
N           98.61405061319174       -9.98506721989308        2.44888901982687
C           97.96787965511945       -7.02310670375131        0.71152618452365
C           97.97972634968696       -5.67647351870798        0.39511031096827
C           97.46884704005701       -2.63380650506472        0.82045693142768
C           96.20737914797579       -3.21947859136870        1.15981938189927
C           95.26349778533704       -2.27523120658389        0.93063763322627
N           97.30164616920931       -1.32619145835984        0.42487632137766
C           95.95031549054487       -1.11564262029404        0.45786780234282
C           95.29260672853417        0.03457308730563        0.01312986984152
C           95.97716774339433        1.16775874167619       -0.43493321090606
C           95.31964968968597        2.32517929503814       -0.95229021096598
C           96.28492402121256        3.24340384773999       -1.19784355701768
C           97.52900188683573        2.64769382439208       -0.81437379568657
N           97.33113187966561        1.35515761991723       -0.38391626815813
C           98.74460401951559        3.31879191925299       -0.82786023830806
C           98.76609685318729        4.74740370373912       -1.22021699990552
C           99.49179499043811        5.16092183296431       -2.33970912448341
C           99.51608789134396        6.49334346481248       -2.71063023599308
C           98.81617571551766        7.44247827161972       -1.95974889942793
C           98.84265490287235        8.81528437908289       -2.33578299204346
N           98.86576844448956        9.92472350204403       -2.64039925824260
C           98.09086500368437        7.03390001286520       -0.83661492256141
C           98.06573445131644        5.69878107465847       -0.47527535844357
C           99.94333216815207        2.70744426375332       -0.48204181002816
C          101.20187924760179        3.39164844930559       -0.41850583334696
C          102.14079082780813        2.45941184917586       -0.13351799869085
C          101.45490442618866        1.20886111050280       -0.01660080745043
N          100.10402318956213        1.37541949208663       -0.19580494088011
H          103.17840083396987       -0.00031075059412        0.20566737434845
H          103.18238798226147       -2.59175637461005        0.37082247596598
H          101.27231084218131       -4.46370517911414        0.72486698359129
H           99.84343521563143       -4.51884520425671        2.97975830756338
H           99.82703643011502       -6.91991013520099        3.55316942668523
H           97.44349178826735       -7.72773816822388        0.07676555168771
H           97.47059147776797       -5.32619360436780       -0.49564896710929
H           96.07240199072218       -4.22196035706973        1.53166066265218
H           94.19574205015171       -2.34349676434864        1.06206594288097
H           94.25566147627845        2.40820712401525       -1.10433493766267
H           96.17473190429409        4.23527654394449       -1.60464809432261
H          100.02746276330382        4.42591310340730       -2.92981233550051
H          100.07644218292371        6.80608714783558       -3.58390809613115
H           97.55047277518767        7.76767445724213       -0.25012835617699
H           97.51189522313996        5.38723953483028        0.40310613965417
H          101.33527755516835        4.45064735792494       -0.56859996577134
H          103.20469628884383        2.58644734646890       -0.01222893951256
C           47.81276655646013       -0.00853447877097       -0.03189240027843
C           49.03697167541492       -0.01724581218523       -0.03868370703907
C           50.37992821563078       -0.02093066721802       -0.04348259518285
C           51.61041768091594       -0.02282768838746       -0.04855243989646
C           52.94850351036021       -0.02054223109557       -0.04780314309340
C           54.17905330305185       -0.01585278776854       -0.04633261574317
C           55.52177922740275       -0.00991132313157       -0.04346962794651
C           56.74620920957474       -0.00419376513239       -0.04064316874837
C           66.38229052698760        0.01259285112627        0.02481360495814
C           67.60675539935046        0.01220447764963        0.03174128770798
C           68.94946168734444        0.01243856185973        0.03694724888267
C           70.18009406283072        0.01272330669147        0.03766868149841
C           71.51807165068014        0.01427643060602        0.03640785971559
C           72.74869200990466        0.01602455253165        0.03236153123163
C           74.09140549822281        0.01931381867578        0.02580385497536
C           75.31584265194047        0.02333395256454        0.01797016881921
C           84.95364560639668        0.05363396648433       -0.00986189285274
C           86.17785666825701        0.05790410948381       -0.00806442762738
C           87.52106421369901        0.06062320052354       -0.00786371509026
C           88.75138869704543        0.06304690658103       -0.00188757925843
C           90.08994339448923        0.06186366297741       -0.00157412268004
C           91.32018711307151        0.06106514199586        0.00171213200826
C           92.66360700222667        0.05560002952332        0.00280555359215
C           93.88759979930244        0.04734052677347        0.00672486847277
Ni          61.56434721722123        0.01105598000525       -0.02434233383959
C           58.14985356454543        0.00103597087936       -0.03757642810487
C           58.82867581457133       -1.19100191456192       -0.30959212554347
C           58.16717997617346       -2.43206507425346       -0.55591595274293
C           59.12622876087470       -3.31846208721864       -0.91823861986800
C           60.37004662373341       -2.61115213961632       -0.89975205970034
N           60.18012508238076       -1.31465634047358       -0.47914140212773
C           61.57846931219828       -3.15314322934118       -1.31869411941169
C           61.58189768701849       -4.52164086562613       -1.88566052214255
C           60.84812031869854       -4.81047265598397       -3.03853233889781
C           60.85031784110176       -6.08610706011871       -3.57349840377286
C           61.58501572075532       -7.10320079963246       -2.95685325911009
C           61.58601942764160       -8.41829853084703       -3.50213870641399
N           61.58719670739351       -9.48096752936826       -3.94358578425426
C           62.31812271858575       -6.81982748404282       -1.80068064588346
C           62.31718784635252       -5.54018566562107       -1.27519422901106
C           62.78246534939073       -2.46698773531519       -1.22706513214870
C           64.03385952482459       -2.97874154950299       -1.69612314165148
C           64.98555748276235       -2.09128495868421       -1.31751461631162
N           62.96097651532873       -1.24797471707990       -0.61320610773179
C           64.31181446119064       -1.03626530284954       -0.63072046784920
C           64.97866970876119        0.01220414788450        0.01119927266312
C           64.29768868479231        1.06256996413397        0.63474232989666
C           64.95638741219683        2.12346534345451        1.32704565602186
C           63.99722708088306        3.01598843804055        1.67362446746642
C           62.75625890481660        2.49992713996486        1.18211272969143
N           62.94761719244253        1.27479551480946        0.58478451934878
C           61.54997214585487        3.18563869971019        1.24440034187779
C           61.54346535442948        4.56160421088557        1.79285990044227
C           60.79050015061397        4.86685388726902        2.92903113175207
C           60.78372156573131        6.15007634915716        3.44552503590885
C           61.52899212668545        7.15832184040243        2.82701782899416
C           61.52069991910626        8.48122526805468        3.35300384595290
N           61.51411931922092        9.54982703517875        3.77980967326900
C           62.28198676804851        6.85834406261568        1.68795751161586
C           62.28965942687990        5.57133341970768        1.18089077062818
C           60.34865270589111        2.63457077936481        0.81698011636091
C           59.10073111261934        3.33494295368067        0.81840206323981
C           58.14890821239648        2.43821245850830        0.46243013803431
C           58.81929161094892        1.19869518897764        0.23326354345301
N           60.16886442614026        1.33230310663245        0.40948371672248
H           57.10470334626290       -2.58874421712878       -0.46301700589253
H           59.01159850556006       -4.35947446726307       -1.17241980012552
H           60.28575117579848       -4.02147795048688       -3.52495107555754
H           60.28395090568072       -6.30143512044808       -4.47197181739074
H           62.88541243176702       -7.60693894235209       -1.31794504872956
H           62.87765991067220       -5.32654826488797       -0.37209722008733
H           64.15844588279160       -3.89741696912727       -2.24563733641443
H           66.05035794839357       -2.13440431060644       -1.47995311365317
H           66.01722159270318        2.16724365678687        1.51353552024923
H           64.11003104219877        3.94032156834598        2.21616683369932
H           60.22021089403532        4.08484448533638        3.41749446918266
H           60.20210260331503        6.37823684527506        4.33099281087658
H           62.85789229506828        7.63838564074109        1.20395344891883
H           62.86578749366878        5.34472773346892        0.29090077311525
H           58.97831933213383        4.37836504587143        1.05866304171952
H           57.08606876376565        2.58738988367499        0.36159702132523
Ni          80.13446752697108        0.04400718613058       -0.01097222287468
C           76.71954867401246        0.02946530804803        0.00826671095638
C           77.39693293981728       -1.15999955569370       -0.27796132942172
C           76.73381945241708       -2.40018726088379       -0.52488031876300
C           77.69067776642358       -3.28563690183715       -0.89488849315912
C           78.93477446402332       -2.57852413790612       -0.88128467157320
N           78.74721584692281       -1.28279367808777       -0.45670227472192
C           80.14093739916559       -3.12060555673279       -1.30582339559998
C           80.14389505511429       -4.49118736034417       -1.86793630390735
C           79.40678342221454       -4.78673836526223       -3.01689781030646
C           79.41098337828105       -6.06454663478120       -3.54680184887686
C           80.15114715245960       -7.07695639963829       -2.92902038409077
C           80.15526305040640       -8.39400707508448       -3.46956688506419
N           80.15981669474635       -9.45831018546980       -3.90698017024970
C           80.88729861056244       -6.78693138915080       -1.77642565555295
C           80.88420958385498       -5.50527911635934       -1.25599789451716
C           81.34522946651224       -2.43345034243755       -1.22307603556422
C           82.59318259053656       -2.94527561182484       -1.70124862421637
C           83.54706749376471       -2.05575029429366       -1.33334098285126
N           81.52740272921552       -1.21304788914189       -0.61361301396547
C           82.87805020762760       -0.99977232524343       -0.64346407738913
C           83.54938109005427        0.05097869318156       -0.01087614071072
C           82.87347686252610        1.10112676871922        0.61778666498629
C           83.53809693113705        2.16416697657941        1.30107753512818
C           82.58110210335670        3.05440849868709        1.65900684851067
C           81.33541537229333        2.53463828102505        1.18358156444337
N           81.52216960533278        1.31005299632043        0.58420115452571
C           80.12810540247420        3.21692171445439        1.26345093964383
C           80.12737803917352        4.59278967089711        1.81243611388696
C           79.39525040327428        4.89630768986669        2.96250682802923
C           79.39727348545091        6.17908851183371        3.48029631813498
C           80.13030642458986        7.18842918517642        2.84910586549331
C           80.13346600755082        8.51034925717735        3.37761722681425
N           80.13328281510229        9.57868148949070        3.80519567572586
C           80.86157492857203        6.89032851846047        1.69548096758868
C           80.86071115674443        5.60382840888173        1.18719531200372
C           78.92259186168393        2.66320950671046        0.85256599717533
C           77.67284777536537        3.36008941029961        0.87426342944016
C           76.71896412516207        2.46266532196025        0.52604036704730
C           77.38972000302974        1.22616200541673        0.28139153260261
N           78.74093721154966        1.36210969906386        0.44173806263252
H           75.67185324785073       -2.55699284813511       -0.42643835490083
H           77.57447159071894       -4.32587969781260       -1.15149972903365
H           78.84048884494540       -4.00138876837248       -3.50464619440744
H           78.84216731875327       -6.28514395205095       -4.44244960064641
H           81.45885324689309       -7.57033565637851       -1.29269921379198
H           81.44741468265212       -5.28627858907198       -0.35588739050262
H           82.71404809425734       -3.86515898308231       -2.24955717606995
H           84.61048555026493       -2.09791773407342       -1.50484112096904
H           84.60102795513362        2.21071795037054        1.47440574802155
H           82.69825880895624        3.97933339740836        2.19958797994297
H           78.83492765197052        4.11335681121787        3.46089088071293
H           78.83254823884087        6.40586920597713        4.37698458812546
H           81.42786654989192        7.67122992721344        1.20162464049639
H           81.42043040367061        5.37833288688832        0.28651439767316
H           77.55089849904999        4.40184842202013        1.12188251634434
H           75.65451589583830        2.60947056690837        0.43976575530972
