128
 energy: -241.795153167985 gnorm: 0.000765232068 xtb: 6.5.1 (b24c23e)
Fe          15.76085028840041        0.02559304016699       -0.02178263383783
C           12.37391286925040        0.01338384636666        0.15565773850393
C           13.01667417679263        1.23369775569935        0.17653047760759
C           12.33139519865416        2.48977061012764        0.23113950013627
C           13.28366510532354        3.44716371985778        0.32377851111925
C           14.54966082866289        2.77235370762431        0.33570515698145
N           14.37376287039587        1.42071648789082        0.21477967631854
C           15.77147667567957        3.41763788104171        0.48982772520380
C           15.77362705949562        4.88540427290017        0.70240303089027
C           15.17755763133068        5.43495778642696        1.83357143661214
C           15.18482600879680        6.81450155291443        2.03587102461694
C           14.54182895024479        7.34040711376368        3.26674565965196
O           14.62305173010058        8.67357279623099        3.38563941982390
O           13.99439145295252        6.65645134009206        4.09300752077788
C           15.78420933546613        7.65542113143960        1.09836814255418
C           16.37417461863985        7.11015984320748       -0.03115050762748
C           16.37366189541358        5.73650612699889       -0.22835825023285
C           16.98795817262940        2.75112064612674        0.45641004886332
C           18.25467960296488        3.39023769930504        0.65485906391455
C           19.20350771078326        2.44012550665612        0.47505131538241
N           17.16370167915951        1.41225187996873        0.19958779032233
C           18.51379791059135        1.22394990235133        0.17830125384758
C           19.17187457103023        0.02814049527377       -0.13392526602593
C           18.49418381826473       -1.16847471721983       -0.39813709377182
C           19.16087437875029       -2.38022129750439       -0.75861884028418
C           18.20483739699612       -3.33563735802216       -0.85289317228064
C           16.95765925667450       -2.70387334296594       -0.53991596221185
N           17.14948042175173       -1.36550756791935       -0.29222011615844
C           15.74619172994657       -3.37654119059561       -0.46634240368581
C           15.73634895549800       -4.84502845344937       -0.67386093979460
C           16.42228026378582       -5.68851368258497        0.20253203426049
C           16.40933628652028       -7.06363573115575        0.01435593351117
C           15.71720693177449       -7.61223052209193       -1.05229414806017
C           15.03022291850781       -6.77897583988587       -1.93642194002285
C           14.30161602712273       -7.40543243322377       -3.06824957003650
O           13.65969344391067       -6.52301012447778       -3.84743666597704
O           14.27432243737456       -8.58960485258433       -3.28590568035958
C           15.03867291086059       -5.39885039228939       -1.74491693861259
C           14.53897357415196       -2.73633280701940       -0.20881544561762
C           13.28121274661090       -3.41634295681878       -0.09030116853255
C           12.33611513532019       -2.46285117450337        0.08265164213881
C           13.01833730292336       -1.20406024287553        0.07980951165627
N           14.36874229038579       -1.38608126230332       -0.06515016055261
H           11.29074265370473        0.01058430064786        0.20211923520626
H           11.25950181100027        2.60356144315305        0.20086312896361
H           13.15430941364066        4.51593158823606        0.37649374492687
H           14.71571810542412        4.79503252670577        2.57745663380308
H           14.18424995154986        8.93691298641787        4.21096681309082
H           15.78550016665713        8.72717682823709        1.25563594802692
H           16.83855767032144        7.75852624020279       -0.76549051578378
H           16.82896395425078        5.31615138260325       -1.11807819418814
H           18.39027348291166        4.42993359568481        0.90452367072702
H           20.27531301240293        2.53923073963714        0.53474186284683
H           20.22324505378399       -2.47194836720886       -0.91764169541759
H           18.32254305459411       -4.37394976999829       -1.11703482073182
H           16.95532693668945       -5.26087925427139        1.04428223491302
H           16.94139856392842       -7.70699792626688        0.70577790201182
H           15.69748514099621       -8.68398061152517       -1.21464191442444
H           13.21201687795965       -7.00856736274108       -4.55926023829707
H           14.51407272723030       -4.75283268002310       -2.43883268888930
H           13.15138013685709       -4.48555514184313       -0.13203231420176
H           11.27096299298817       -2.58107428057290        0.20237275536480
Fe          29.17808104976985       -0.01677473377377       -0.02814614122585
C           32.56506633403040       -0.06223546868675        0.14678901028341
C           31.92296322047255       -1.22286706613250       -0.23184667206189
C           32.60885738630560       -2.42797439181940       -0.58899033982440
C           31.65700562331453       -3.36334813090131       -0.81495875945442
C           30.39061545397852       -2.72945832621669       -0.58537290635454
N           30.56590187897677       -1.41239623363779       -0.25829738597769
C           29.16885575566897       -3.38958814235474       -0.65287780699675
C           29.16724006738977       -4.84623243435643       -0.93155396325637
C           29.76219165967878       -5.73489424582184       -0.04094142825998
C           29.75568010596611       -7.10486652914606       -0.30019742193720
C           30.39791432400794       -8.00362188279053        0.69221217452650
O           30.31688059434370       -9.30257596355568        0.36954191619986
O           30.94394238591493       -7.62670976177769        1.69720701007635
C           29.15795247462169       -7.59371569379806       -1.46169519130865
C           28.56902220438369       -6.70967148813569       -2.35207757708391
C           28.56893470618673       -5.34688526671542       -2.09002971959096
C           27.95206307151155       -2.74889202027830       -0.46825229576766
C           26.68556114697432       -3.41816729473551       -0.49070483925656
C           25.73637284562062       -2.46203777616829       -0.34875147908515
N           27.77581700964155       -1.39987005293141       -0.27208866126700
C           26.42558044108076       -1.21555610365176       -0.23044941562014
C           25.76704590308637        0.01639479709765       -0.13494558660317
C           26.44426051203151        1.23407303852914        0.00482351682079
C           25.77745268287479        2.49721130228532        0.05679798704336
C           26.73344210134014        3.43170402405303        0.27707192343393
C           27.98062500278232        2.73264111485549        0.36874775693631
N           27.78892878277543        1.38623873644355        0.16888539136902
C           29.19166014243565        3.34472051678435        0.65902159421055
C           29.20084779122582        4.80073763092481        0.94116032903759
C           28.51302112805834        5.31222123464264        2.04359888256596
C           28.52515646116018        6.67353786598846        2.31408008356140
C           29.21830778089890        7.54010345119391        1.48560187226791
C           29.90699860965568        7.04084304615957        0.37908473567625
C           30.63583480310529        8.00241839130751       -0.48611585926536
O           31.27944842484025        7.42242132238908       -1.50941555972908
O           30.66298680968732        9.19282526028254       -0.30539411828983
C           29.89952524707094        5.67364948935456        0.11023834540980
C           30.39881354072717        2.65555642409803        0.69635098470776
C           31.65601765940853        3.26002205337714        1.03169494380851
C           32.60151362301104        2.30247194565757        0.88528624669590
C           31.92000962069548        1.11324511813809        0.47141952886461
N           30.56965842810384        1.33223965823192        0.39229315506784
H           33.64821264080975       -0.07436262333346        0.19240852266755
H           33.68085017527984       -2.52554462340298       -0.65332558004817
H           31.78697393965028       -4.39086083754801       -1.11345749348333
H           30.22263875095051       -5.37277100563828        0.87175196102070
H           30.75480399134012       -9.82085323398475        1.06425288127775
H           29.15719015607099       -8.65808142557473       -1.66298653773559
H           28.10591902608284       -7.08284956961253       -3.25847412418184
H           28.11451918768369       -4.65918200627480       -2.79442296706006
H           26.55035161153212       -4.48222896888716       -0.59627103408197
H           24.66460032763873       -2.57556044116417       -0.32473883581203
H           24.71506074860872        2.63546669600291       -0.06371465683367
H           26.61582162460454        4.49967490432115        0.36312970619510
H           27.97915097931629        4.63330220240071        2.69904836363594
H           27.99164486243975        7.05616207243081        3.17665395582728
H           29.23723415572989        8.60625115479353        1.68147052734782
H           31.72773086972087        8.11353267473126       -2.02348229304653
H           30.42562803271199        5.28933186100454       -0.75555101011678
H           31.78522139184350        4.28440413235893        1.34114376473699
H           33.66649375515274        2.37542828219108        1.03812082657582
C           21.79622271510562        0.03216960714572       -0.18828976762409
C           20.57244744172246        0.02815355258711       -0.17290358569122
C           23.14272452334319        0.03047576413517       -0.18793293119859
C           24.36653802113927        0.02902198688572       -0.17271421170805
