195
 energy: -399.555209221908 gnorm: 0.000465878376 xtb: 6.5.1 (b24c23e)
Cu          36.57258125945270        0.00431746186606       -0.00194161493178
C           33.16793970962672       -0.01420592135361        0.00988344033992
C           33.79766990722221       -0.22970238417187        1.22632613420572
C           33.11867451203957       -0.49904242105607        2.46188671571993
C           34.07264577227158       -0.63613187620426        3.41524238573310
C           35.34401849684663       -0.43787592553065        2.77235008947095
N           35.14630211512964       -0.20670679780545        1.44168303278350
C           36.58544945646984       -0.48402942834853        3.41040363253662
C           36.59353365329650       -0.71360224223547        4.87596000726211
C           35.98735831719720        0.20261319754341        5.73892330204226
C           35.99212011223443       -0.01076219440210        7.10760529159769
C           36.60352168179639       -1.15205268944720        7.60049909209578
S           36.61658077595850       -1.42699812632562        9.33184383422984
O           36.44726610105648       -0.19295720196261       10.03983993719677
O           35.23925390638435       -2.28062594870210        9.44641298410540
O           37.69903368571841       -2.28906558007613        9.70756955284028
C           37.21541637456249       -2.07756455216206        6.77065979148470
C           37.20936480574207       -1.85115118461616        5.40431534660927
C           37.82136846642659       -0.33557193730992        2.77648801025034
C           39.09196947891292       -0.30986690729417        3.44529217146819
C           40.04192046076157       -0.15835275195338        2.48838486543638
N           38.01560056975720       -0.18060397348214        1.43102364579709
C           39.35975273861911       -0.08421907528445        1.23064730170100
C           39.99899383243510        0.02284677376639       -0.01346560474311
C           39.35035738605549        0.12293630837911       -1.25312170980952
C           40.02284647015727        0.20424898110344       -2.51551706597098
C           39.06460841145667        0.34608358586486       -3.46575467333697
C           37.79839758458859        0.35841648989513       -2.78820505442729
N           38.00372125784889        0.20481131495297       -1.44428883153601
C           36.55663102313966        0.49523388677230       -3.41390284434277
C           36.55405532117069        0.73238868401415       -4.87825312797358
C           35.94416917734507       -0.17899260940993       -5.74383955062797
C           35.93772141482916        0.04532197407460       -7.11077055889440
C           36.54511583493445        1.19044956956314       -7.59997665380779
S           36.52545775703276        1.48838820789657       -9.32743951644832
O           36.72063275041477        2.88033137162623       -9.60967440966237
O           37.89143855234741        0.70140185640824       -9.71926252238910
O           35.42240892116934        0.81331336205379       -9.94466097292828
C           37.15432738496706        2.11478330388607       -6.76699640988565
C           37.15806558642504        1.87829365881531       -5.40233882742570
C           35.31999631369622        0.43452090656609       -2.76767174199919
C           34.04184931106264        0.62051091728100       -3.40100753197341
C           33.09628732685721        0.47176414821269       -2.44115490577404
C           33.78690289459619        0.20795509647888       -1.21082589899055
N           35.13415304444885        0.19904438507361       -1.43596897417496
H           32.08292208830124       -0.01945348317057        0.01377661510978
H           32.04858152555656       -0.57951260288235        2.56963157286034
H           33.93558449775131       -0.86169336779682        4.46053513987610
H           35.52471293495101        1.09486721397680        5.33352565153644
H           35.53460083648361        0.69796078088633        7.78636114230945
H           35.15115886951440       -2.65444603879757       10.33161941907720
H           37.68940489947578       -2.95586386614492        7.19058063571495
H           37.67336816640547       -2.56759975805149        4.73647015134950
H           39.23403284371251       -0.38459373906737        4.51123744625437
H           41.11117432531306       -0.09763074074127        2.61377596687917
H           41.09183902955937        0.15463013243933       -2.64813384714456
H           39.19829109193195        0.42213045243460       -4.53271893360183
H           35.48447663846761       -1.07439701821612       -5.34202658155383
H           35.46639566301179       -0.65337285737249       -7.79050198094164
H           38.09911206038093        0.83883953620089      -10.65153448990449
H           37.60942721901557        3.00526639290503       -7.18210599854444
H           37.61776925561826        2.59504154363427       -4.73185574505526
H           33.89440462181112        0.84654380431520       -4.44474782712194
H           32.02466039490923        0.54121535639965       -2.54097096901108
Cu          58.37273615451006        0.00395760661087       -0.04206315269856
C           61.77849786918338        0.00062066545651       -0.07309870027302
C           61.14306807999426        0.05967275723701       -1.30395471617074
C           61.81797320891032        0.08806916933849       -2.57031232098321
C           60.85943891634715        0.13192473855612       -3.52788069149303
C           59.58893638585597        0.13864859329784       -2.85378549671473
N           59.79221739940787        0.09187374272552       -1.50483256379130
C           58.34412146350147        0.14961973564004       -3.48653843035561
C           58.33110450798871        0.23439181259269       -4.96797182819687
C           58.85434511568035        1.35979155180889       -5.60948424789309
C           58.83422700164236        1.45511533985319       -6.99117647914116
C           58.29182871645656        0.41034787913607       -7.72160723743163
S           58.24921313967987        0.53113444685356       -9.47009767352735
O           58.31430361874493        1.90179392911425       -9.88253620258357
O           59.67749332740806       -0.17207934582877       -9.79206052546964
O           57.21692532210545       -0.30000020450292      -10.01717918300430
C           57.76779990641100       -0.71946849188886       -7.11459129581156
C           57.78871765480069       -0.80180343570640       -5.73198528796835
C           57.11001776796718        0.09491606217355       -2.83503128403210
C           55.83169189436055        0.15094472700809       -3.48715942911770
C           54.88673376889832        0.10243866053838       -2.51497786963639
N           56.92387598648715        0.02155857567708       -1.48093924351327
C           55.57913319851318        0.02849573505487       -1.26286050592593
C           54.94705711661739        0.00562751801499       -0.01086786300812
C           55.60153392758914       -0.01804032331121        1.22944658430120
C           54.93214557104623       -0.08983860415644        2.49412597584954
C           55.89481658206866       -0.13745666251136        3.44891900045494
C           57.16094417640886       -0.08383504955796        2.77329173893447
N           56.95007130205707       -0.01233851714242        1.42276534868789
C           58.40658233971462       -0.13906616405708        3.40229276901210
C           58.42082111461929       -0.22061131984355        4.88403411248447
C           58.95437352925290       -1.34561899977775        5.51790118869596
C           58.96655040259625       -1.43470727842379        6.89994517465574
C           58.44264783523740       -0.38591894807482        7.63841348300676
S           58.46744705109276       -0.48993339777032        9.38827237089408
O           58.34065611771489        0.80976056646827        9.97876487409589
O           57.06464551835524       -1.28200874339879        9.59663729384379
O           59.53096013442791       -1.34238956544397        9.83184627074186
C           57.91380460460705        0.74557703585325        7.03920586359375
C           57.90313070962239        0.82210001686249        5.65594872868010
C           59.63973287227372       -0.13098475636464        2.74710947427073
C           60.92241194917869       -0.12649081724759        3.39790752876411
C           61.86337378453649       -0.08594370552916        2.42302021944583
C           61.16552862013949       -0.05680579721114        1.16913009073816
N           59.81848848970493       -0.08608768986038        1.39459917155317
H           62.86347939878208       -0.00057594966416       -0.08302916254239
H           62.88896068641561        0.06734813194440       -2.69575198472355
H           60.99256810335723        0.14452097712281       -4.59766949566896
H           59.26231738067700        2.17149731527113       -5.01849714529226
H           59.22519141930834        2.32842564262122       -7.49794956293386
H           59.77143518542091       -0.31718235500128      -10.74139485227904
H           57.34740990131439       -1.51538115122162       -7.71641121870270
H           57.39228949214399       -1.68101674232615       -5.23767568305558
H           55.68008572205316        0.23225563208947       -4.55124090309321
H           53.81437907245227        0.12631764972330       -2.62519727281266
H           53.86191605781426       -0.11277915939007        2.62372168398356
H           55.76327166659763       -0.21628268973238        4.51589011959249
H           59.34918853409201       -2.15947959806218        4.92097489629439
H           59.37770716337268       -2.30167045090055        7.40161879339830
H           56.90501215580905       -1.43561301173667       10.53582881135987
H           57.52409646308200        1.55214413751309        7.64745307842784
H           57.50473320006366        1.70364096070468        5.16739934144607
H           61.07513444265442       -0.13835505844976        4.46505612456957
H           62.93650574816694       -0.06764809025962        2.52887006079918
C           41.41325182904650        0.02946567455591       -0.01577241038313
C           42.62814608242350        0.03378373832592       -0.00673967544845
C           52.31797099168374        0.01200357693850        0.00841795003096
C           53.53289349485243        0.00687747360640        0.00015550331597
Cu          47.47454440424431        0.02282880176020        0.00227443600702
C           44.04217306884053        0.03148347230431       -0.00365777203995
C           44.68681600012104        0.94357116639309        0.84564416872405
C           44.01001200183798        1.85519054009075        1.71989712568982
C           44.96599013748286        2.59550135455507        2.33580989475031
C           46.23456434098171        2.14205644487606        1.83799058028645
N           46.03255194377485        1.12910308309308        0.94154675610834
C           47.47583902764790        2.64850147581781        2.23095411368039
C           47.47032668430288        3.81307953618778        3.15081258048322
C           48.03687464059798        3.72092951450334        4.42422962755775
C           48.03453011433455        4.81424894204205        5.27508430314423
C           47.46367654147140        5.99801668799364        4.83636700117965
S           47.47236606836154        7.39096505624367        5.90121331936390
O           47.31131839271875        8.59940501775834        5.14868283349523
O           46.08996794116717        7.08958534336021        6.69855297148691
O           48.54801659871882        7.31034129167485        6.84581162131226
C           46.89761119999095        6.12130749390421        3.57801901579445
C           46.90079453822720        5.02033208195516        2.73783983388966
C           48.71741242854334        2.16152892765765        1.81698369932658
C           49.98911707430705        2.71006513119712        2.19788937932945
C           50.94297403232056        1.96463799506003        1.58532768169166
N           48.91653720859208        1.10503615420783        0.97030466607528
C           50.26191571384862        0.96641677737213        0.81489343151141
C           50.90403313699577        0.01475362914653        0.00803282413077
C           50.25975794146772       -0.93398568827732       -0.80073765140096
C           50.93874740412954       -1.93572765544909       -1.56833154573397
C           49.98360079712492       -2.67760243648162       -2.18311346714573
C           48.71299303254196       -2.12296604585100       -1.80727629582224
N           48.91418890014781       -1.06683131312361       -0.96061637072209
C           47.47030480890668       -2.60574284011660       -2.22386741753224
C           47.46272671913022       -3.77275033298914       -3.13992873427503
C           48.05041168583840       -3.69369646262171       -4.40479562758400
C           48.05197351456332       -4.79200381388338       -5.24917471841494
C           47.46167447365804       -5.96741897079645       -4.81370046590863
S           47.48088814258246       -7.36928841775459       -5.86647505545448
O           47.31226565040165       -8.57077463325157       -5.10443778757948
O           46.10698406964976       -7.07707641437072       -6.68217566287087
O           48.56634428991257       -7.29694676740604       -6.80050769560275
C           46.87115168628746       -6.07687701836271       -3.56525769227717
C           46.87215828218759       -4.97148839957628       -2.73104993557643
C           46.23011532745234       -2.09334919022198       -1.83456496648669
C           44.96066848916423       -2.54167407999600       -2.33489629077813
C           44.00659176077633       -1.79540882459088       -1.72327050283483
C           44.68536201697422       -0.88503576667078       -0.84933922316260
N           46.03042781147463       -1.07737347953044       -0.94111264686654
H           42.94021225511696        1.91142717584377        1.84298165621906
H           44.82955100679195        3.36978761329139        3.07333937557632
H           48.46936181279003        2.78287969666473        4.75209181586194
H           48.47227434402107        4.75494751054465        6.26365855389776
H           46.00976867645718        7.67567544617567        7.46092246094401
H           46.46974229733028        7.06478543576036        3.26323522242025
H           46.47338778733949        5.09788558813666        1.74490784692509
H           50.13054630934734        3.56331490606734        2.84122434140908
H           52.01393219112531        2.08030334603549        1.63444725125787
H           52.00927229410354       -2.05640324188095       -1.61420163382664
H           50.12415510512109       -3.53239273785847       -2.82453106819727
H           48.49754101195875       -2.76198151394029       -4.73106969835793
H           48.50824490271264       -4.74303661137519       -6.22991022091720
H           46.04242188054599       -7.66311818024752       -7.44604384549787
H           46.42726791497608       -7.01373410123208       -3.25287986765664
H           46.42760761764059       -5.03946335547801       -1.74495362815342
H           44.82180130353301       -3.31672363945676       -3.07113898714893
H           42.93686802634617       -1.84746985873943       -1.84869887414441
