132
 energy: -267.506082684747 gnorm: 0.000996817525 xtb: 6.5.1 (b24c23e)
Co          17.04426424018890        0.06564947132137        0.06524831941698
C           13.67187171617898        0.14109130314467        0.09747517603792
C           14.32403689249424       -0.42197282170010        1.17320310982685
C           13.65651428298514       -0.99742430446233        2.30127740314279
C           14.61055647717096       -1.25856052843598        3.22519353966690
C           15.85876589294356       -0.82973949161758        2.66412979250536
N           15.68060670504443       -0.38523899704408        1.37913307496998
C           17.05333935213147       -0.76777876428682        3.36926455637993
C           17.05768961710823       -1.11653777715222        4.80795780362071
C           16.26547957079701       -0.40109191254588        5.70961106377931
C           16.26878687129560       -0.72246518752823        7.05684657352132
C           17.06638187019452       -1.76977810481500        7.48893729156184
S           17.07950536706374       -2.17768891606624        9.19397363852697
O           16.70838356448478       -1.04688616118304        9.99247503807972
O           15.83718719656028       -3.22431694133921        9.19405556749025
O           18.27222799520501       -2.89501443715344        9.53570228986444
C           17.86385084140252       -2.49619876026899        6.61970546523133
C           17.85755615644267       -2.16239520896776        5.27546048078641
C           18.24242472513456       -0.38398904215853        2.76650397288386
C           19.48776964626605       -0.23956956550137        3.45862993125986
C           20.43716847463745       -0.03219302743555        2.51448105632991
N           18.42028163950896       -0.19895250771081        1.41509656267755
C           19.76828616583414       -0.04182084372579        1.25225421851051
C           20.43484234594854       -0.03642360075119        0.02481288180032
C           19.74434244954396       -0.00873317505556       -1.18896898117881
C           20.38645781796671       -0.05565368662733       -2.46417342478157
C           19.42708656729027        0.18090993326608       -3.39106612749923
C           18.20395015970588        0.38643135282069       -2.67500872331775
N           18.39977323276585        0.19624847822201       -1.32634133366247
C           17.02514053822121        0.83173492749471       -3.25479439160453
C           17.01580159692102        1.17060484392584       -4.69578305589453
C           16.15461840437337        0.50304370598808       -5.57022358982846
C           16.14234569256105        0.81477226190426       -6.91981443274004
C           16.99687689707361        1.80231985493147       -7.38177115784817
S           16.97865710241496        2.21018449943514       -9.08815290950385
O           17.41923939348426        3.55785527510270       -9.30206281563432
O           18.16968450686621        1.22622007198298       -9.58841003472294
O           15.74857662215984        1.78551762828137       -9.68535937661160
C           17.85742144556071        2.48636420383645       -6.53853397577884
C           17.86489854217087        2.16345040096214       -5.19167020413979
C           15.85349798825185        0.97083521830187       -2.52228882598888
C           14.62228849769868        1.47805968221228       -3.05447358384642
C           13.67570868066369        1.27921483231807       -2.10748379549378
C           14.33163343030299        0.66316364819332       -0.99432099950518
N           15.67665102549897        0.53382356475197       -1.23486922996033
H           12.58900294470538        0.17421039576114        0.11071090265632
H           12.59279089252306       -1.16333123779575        2.36153886625060
H           14.49365115194399       -1.69773891595971        4.20263484891803
H           15.65807483440575        0.42255329562254        5.35295524156448
H           15.66785349575176       -0.16734822050117        7.76617896248561
H           15.66802817343231       -3.53959107370226       10.09032933489505
H           18.47946532904913       -3.30513183261152        6.99253020923294
H           18.46623411571672       -2.72461873560412        4.57696924633353
H           19.60795035452189       -0.29037953650824        4.52848017288979
H           21.49825178527993        0.10821406791592        2.64314053364496
H           21.43791555948877       -0.24055681951994       -2.61374388339583
H           19.52802526375203        0.21858599003786       -4.46344441712794
H           15.50226607526834       -0.27445833194561       -5.19013254569138
H           15.47907438993571        0.30374435247683       -7.60622470376428
H           18.53272814729430        1.54146132495536      -10.42539166729103
H           18.50304593602145        3.26180161565307       -6.93141543606535
H           18.52108253829976        2.69551651491742       -4.51282949032367
H           14.51103176411324        1.92454935165182       -4.02923723020899
H           12.62403043250971        1.51426018361620       -2.14295858224330
Co          30.42535285921792        0.08567296213759       -0.03634862147360
C           33.79768580051592        0.16804955121188       -0.03896829870378
C           33.14536049236433        0.04128160942263       -1.24643493286158
C           33.81267617926339       -0.07739767665710       -2.50734923000774
C           32.85844162619592        0.02047202452191       -3.46226644178745
C           31.61033108429214        0.21188711250226       -2.78236661852928
N           31.78871931909337        0.15096571832036       -1.42404808339548
C           30.41575102416157        0.52993524424480       -3.41472650944813
C           30.41139113613337        0.73725486209874       -4.88052812671202
C           31.20314246392868        1.73564419903276       -5.45390825767327
C           31.19982527977631        1.93488807520875       -6.82454124465821
C           30.40277104794479        1.12091087582938       -7.61312335273967
S           30.38953254349608        1.37208488446988       -9.34822067798900
O           30.75937897946440        2.71831552323565       -9.67217927057089
O           31.63279964952540        0.40082309056800       -9.73517195368538
O           29.19732485894500        0.83074259316249       -9.93089176718404
C           29.60580479669937        0.12425898877246       -7.07391960898091
C           29.61200467308555       -0.06224069432771       -5.70145328607645
C           29.22679844585935        0.66449524175632       -2.71276782350613
C           27.98142775722405        1.05466505203043       -3.30230994854512
C           27.03225204502939        0.89912856672637       -2.34800845807697
N           29.04915985900029        0.33743162048674       -1.38847346758017
C           27.70130499332779        0.42372385721177       -1.17878007708754
C           27.03483179396591       -0.02472763690713       -0.03607311778936
C           27.72550767899783       -0.44707529774376        1.10207388263857
C           27.08353944813947       -0.96132969087455        2.27005978931206
C           28.04306881934189       -1.08375057399046        3.21861057316463
C           29.26616933702620       -0.62852489465799        2.62882111858949
N           29.07012071277381       -0.30738985263091        1.30518995676256
C           30.44507030760381       -0.42882394986591        3.33188638551800
C           30.45451589193387       -0.64620889732709        4.79617376701391
C           31.31516805146252       -1.59011572704704        5.36207848997804
C           31.32717751216477       -1.79925383374066        6.73133295185483
C           30.47297403090996       -1.05191030404252        7.52550324993465
S           30.49111808140946       -1.30300713612023        9.26180352668851
O           30.05241494037267       -0.12868465964649        9.95792401137697
O           29.29884209236345       -2.40061739624341        9.36316555402957
O           31.72033588272057       -1.91989685678026        9.66026738377199
C           29.61309788091842       -0.10407585305583        6.99466497557099
C           29.60582059046104        0.09360486167816        5.62381209198218
C           31.61663604141082       -0.02894189977111        2.70242130196596
C           32.84786090690631        0.24624182881602        3.38410099104697
C           33.79420132651686        0.41168003367050        2.43044747499744
C           33.13812619319773        0.25007514546058        1.16857023765846
N           31.79323414948502        0.04041593813336        1.34460115737001
H           34.88054421809605        0.20413501416082       -0.03924011499304
H           34.87640869416516       -0.20916727467513       -2.62469437214681
H           32.97504552366289       -0.02717669271947       -4.53281553474682
H           31.81018167237298        2.36949749636767       -4.81808523346485
H           31.80034074517235        2.71319028581454       -7.27846919838303
H           31.80210317893431        0.43968753917746      -10.68446198103020
H           28.99062319010741       -0.49001382558365       -7.71934669505128
H           29.00362090364430       -0.84303516867855       -5.26020057773963
H           27.86101521164768        1.40245458154297       -4.31530212239574
H           25.97123455906373        1.07761695315154       -2.41545800539093
H           26.03207713296675       -1.18828261135239        2.34101141635654
H           27.94231498707810       -1.44458796056157        4.22918461685566
H           31.96730389435884       -2.17239246286734        4.72160410544686
H           31.98997203832006       -2.52816537506643        7.18037907627057
H           28.94312760766981       -2.42409127952901       10.26005095920763
H           28.96776814685047        0.47165889268774        7.64625000287319
H           28.95012765628123        0.83926366259907        5.18957494193435
H           32.95933636773228        0.30104239872894        4.45483539948438
H           34.84581437556566        0.61744846306558        2.55005638021915
C           23.06031339930760       -0.06071607006799       -0.00467580952649
C           21.83830986774087       -0.05533468759209        0.00970824978769
C           24.40943640427484       -0.05785478257968       -0.01696566221158
C           25.63137825788314       -0.04706850859600       -0.02890473865008
