126
 energy: -233.200384548283 gnorm: 0.000732973634 xtb: 6.5.1 (b24c23e)
Zn          17.00459043051195        0.03618692147448        0.01200671160998
C           13.59531366179958        0.02391941947700        0.18123896771726
C           14.21842339737360        1.25871409122005        0.31320642060212
C           13.53821446481579        2.51269007633064        0.48214115807774
C           14.49190687798336        3.47139388404035        0.58246644438795
C           15.76837104478248        2.81216698038812        0.48956985791320
N           15.56655367370957        1.47474138362140        0.31285909549682
C           17.01762020821343        3.43850364070714        0.56284857754520
C           17.02659270390544        4.90615599733902        0.78672632245173
C           16.46653773294016        5.45411564747860        1.93737136104400
C           16.46948587410845        6.83400803701478        2.13840512160253
C           15.85715740469936        7.35639584553505        3.38525655428651
O           15.90493678905734        8.69325824619914        3.48698457883875
O           15.35562978668445        6.66838979012062        4.23744492988893
C           17.03468584108276        7.67896790920518        1.18317769077345
C           17.59432794432863        7.13630291768248        0.03716749207715
C           17.59264516971746        5.76277697790789       -0.16088616122092
C           18.26000608012516        2.80371418719035        0.44678882012595
C           19.53277037824345        3.44597868568438        0.61976406592214
C           20.48524383557022        2.49663479921510        0.43708275947626
N           18.46467183393608        1.47737680182532        0.17639538883096
C           19.80998414147977        1.26640300180011        0.15018116877037
C           20.45105034154011        0.04318115535792       -0.13656893292830
C           19.79096447213644       -1.17860847112426       -0.38557028439158
C           20.44359056382160       -2.40149125146117       -0.74536159443752
C           19.48271076409056       -3.35403073162939       -0.85382393906937
C           18.22811984190934       -2.72138462911626       -0.55828019550747
N           18.44947871003401       -1.39541838625196       -0.29827192840713
C           16.98514786141022       -3.36553799820457       -0.55202520609149
C           16.98529488541519       -4.83370597705776       -0.77201940784795
C           17.65861107234269       -5.67813521853994        0.11427878840027
C           17.65843830681353       -7.05260310312706       -0.07788082023546
C           16.98791966433768       -7.60237607633867       -1.15762635500627
C           16.31260781034536       -6.76984117465937       -2.05158519424398
C           15.60476750529112       -7.39779670108515       -3.19474311002504
O           14.97993190678383       -6.51669083107874       -3.99009048543661
O           15.57709923002223       -8.58288313757257       -3.40921072178031
C           16.31203468571699       -5.38974730495978       -1.85770421752898
C           15.74522687293527       -2.74877261286987       -0.35063043608814
C           14.47153254182936       -3.41789621747737       -0.30769468149585
C           13.52598470084458       -2.46605080940056       -0.10911567701986
C           14.21030791833768       -1.20673556363631       -0.01497824627840
N           15.55244870138496       -1.41229180083850       -0.15686737683542
H           12.51127504587036        0.01991037789055        0.23876456064444
H           12.46656484389324        2.63240368817136        0.51171380638699
H           14.34800382206860        4.53335881590907        0.70105018657991
H           16.03482011154266        4.81252883764852        2.69778775875831
H           15.48612479497569        8.95412474926272        4.32316553811554
H           17.03388638430372        8.75079154671040        1.33992893084724
H           18.03330030858543        7.78700947236967       -0.71072643094780
H           18.02020019056510        5.34605867129100       -1.06609282548808
H           19.67792860797134        4.48504397917708        0.86802751422391
H           21.55377056077324        2.61384737298978        0.50224103530785
H           21.50196644148418       -2.51172121465872       -0.91130348502330
H           19.61032520636038       -4.38897843660537       -1.12752734793563
H           18.17265540804966       -5.25058291806929        0.96797398401018
H           18.18215702727278       -7.69463848640600        0.62123950571140
H           16.97626661270165       -8.67377548864189       -1.32289586217906
H           14.54250198814234       -7.00438824667714       -4.70662648152498
H           15.79952295544615       -4.74525874701485       -2.56206467992456
H           14.32431156680027       -4.48146098741432       -0.40671231078143
H           12.45827857895088       -2.59456865470543       -0.02426438692540
Zn          27.93830043661649       -0.03812454108127       -0.00046802187485
C           31.34757466917529       -0.08172767724245        0.16354803869897
C           30.72446911255506       -1.29203315687904       -0.11448030892809
C           31.40468169655718       -2.53252745054984       -0.36380658954645
C           30.45099232871575       -3.47152094730834       -0.58169534424013
C           29.17452583316354       -2.81805035036766       -0.45449166926644
N           29.37633984057634       -1.49613313432975       -0.18528850006926
C           27.92527721516135       -3.43403231376946       -0.58953783489519
C           27.91629694497771       -4.89443992580333       -0.85662024113404
C           28.47631850394979       -5.78774926306695        0.05237834052246
C           28.47342037589395       -7.15774635743091       -0.20769951649138
C           29.08595182912411       -8.05825905102832        0.80046222448518
O           29.03795164345744       -9.35517269853650        0.46069752161862
O           29.58722896332179       -7.68582312500082        1.83061532962697
C           27.90821824691615       -7.64491847820534       -1.38629044710765
C           27.34858095843778       -6.75812733076210       -2.29261884234622
C           27.35025824703255       -5.39512010937084       -2.03182396665086
C           26.68289112970780       -2.79610408851656       -0.49220567450009
C           25.41012721913688       -3.45966210856354       -0.53819811378767
C           24.45765352631697       -2.50265407869449       -0.40122746685450
N           26.47822476498883       -1.45411167453871       -0.31517620867513
C           25.13291291289964       -1.24612630684231       -0.27114472025350
C           24.49184153533525        0.00372500417368       -0.14321770432339
C           25.15192231782618        1.23991280645577        0.01992217638487
C           24.49929605735496        2.51327014722959        0.07868061032150
C           25.46017512508085        3.44909168485619        0.28685189132425
C           26.71476561210709        2.75464612820884        0.35988435670937
N           26.49340820360464        1.41639020290410        0.17316869993247
C           27.95773533315440        3.36152883446750        0.57592123992584
C           27.95758606057235        4.82115552004594        0.84685467691770
C           27.28425841402091        5.33029874423304        1.96011293354473
C           27.28443170591772        6.69226925570368        2.22680176269909
C           27.95496170256573        7.56417257181013        1.38545165023286
C           28.63028207378630        7.06877286754354        0.26882956145668
C           29.33811882448068        8.03527032047941       -0.60697114749806
O           29.96297148090290        7.46179247882799       -1.64621333724540
O           29.36579765907533        9.22549371473972       -0.42313403714283
C           28.63085742767816        5.70092181850339        0.00193493852306
C           29.19765605225665        2.71280425047422        0.56514098343935
C           30.47134697312277        3.33132612141842        0.82400251024012
C           31.41689605802812        2.36676646608941        0.70126114404079
C           30.73257718391675        1.14562106544038        0.37947437496511
N           29.39043734319187        1.38621697946955        0.31237483569167
H           32.43161261911639       -0.09670133300257        0.21924855656998
H           32.47633157748944       -2.65533851931382       -0.37488921577797
H           30.59489885869766       -4.51408205575686       -0.81599593088998
H           28.90806775969896       -5.42928079358366        0.98046125485207
H           29.45662312045069       -9.87450386918200        1.16613725989797
H           27.90902026884444       -8.70925151293781       -1.58771903755693
H           26.90960424949915       -7.12929908604568       -3.21185299745899
H           26.92269627222774       -4.70593492375041       -2.75159625593108
H           25.26496874221365       -4.52287585739812       -0.64244780164640
H           23.38912680023309       -2.63470993811330       -0.37787099333384
H           23.44092036665588        2.67159749643548       -0.04223373158998
H           25.33256110050131        4.51671282983563        0.36569069873589
H           26.77020655258055        4.64766532494647        2.62764605569747
H           26.76070488031228        7.07114299747958        3.09710327953464
H           27.96661174404331        8.63088066529427        1.57869908015925
H           30.40041125894233        8.15654225769901       -2.16446671490570
H           29.14337952109926        5.32143923527016       -0.87411986653964
H           30.61856481735161        4.36901938477579        1.07731672038562
H           32.48460032458313        2.46057784855167        0.82340839963407
C           21.86222467814391        0.03594850168136       -0.16395551933992
C           23.08066673042979        0.01948485795814       -0.16673167661009
