130
 energy: -247.849014511866 gnorm: 0.000583244220 xtb: 6.5.1 (b24c23e)
C            9.99486896790325       -0.10403031360217       -0.03130485467257
C           10.60151895590599       -1.31890369030567        0.25970297333658
C            9.94671870824660       -2.55516730650081        0.52213082576841
C           10.90555254572702       -3.49243388413373        0.78373736323304
C           12.17729425251646       -2.85604640704344        0.69867714398478
N           11.94357774187682       -1.55198733896182        0.36868187672474
C           13.44014780437992       -3.43145152639399        0.88311096771940
C           13.47080210767984       -4.85982477564504        1.27319579944587
C           14.11908922424121       -5.79961331679520        0.46537124729130
C           14.15473456766607       -7.13361187694153        0.82763612380127
C           13.53984166455306       -7.53267015507308        2.01115692739710
N           13.57891482827072       -8.93104943319610        2.39947410932155
O           14.15507434653753       -9.69679282706839        1.66985535884045
O           13.03207906996381       -9.24002424728796        3.42730644857530
C           12.88869682773440       -6.61374098399460        2.82931603541521
C           12.85464911975192       -5.28287427989515        2.45524201337658
C           14.65834846673652       -2.76261162158739        0.73123666910249
C           15.95414371633960       -3.36502539449512        0.99000746480888
C           16.87546672349610       -2.41483361682262        0.72989004634922
N           14.81342451693284       -1.46658622359922        0.34672766345534
C           16.14123538796611       -1.23145818469994        0.32560585261600
C           16.78035034680732       -0.02849764337511       -0.03705252905875
C           16.14677012567594        1.17968730388610       -0.38550274182546
C           16.79401724022206        2.38417811722635       -0.76792520142380
C           15.83024660267825        3.32651834788051       -0.99763396344234
C           14.56377139463613        2.72624104460019       -0.75385484092669
N           14.80624989400708        1.42642709560530       -0.39878433594017
C           13.30159385480033        3.31919391549662       -0.87814871651409
C           13.27360368600331        4.75621253516448       -1.23243142347753
C           12.62757442555393        5.18710549411799       -2.39574332013321
C           12.60035777004544        6.52870676609365       -2.72957691971209
C           13.22096121703401        7.45042981617707       -1.89087632385146
N           13.19400763625367        8.86034595671520       -2.23552071356250
O           12.60828935947561        9.17847796291047       -3.23875438997107
O           13.76114225789813        9.62568411998301       -1.49822695401689
C           13.86773615640476        7.04320010853612       -0.72731031075291
C           13.89325563539715        5.69877905669028       -0.40521642640823
C           12.08257486295812        2.65751521716729       -0.69120138262218
C           10.77870746694266        3.29879380490453       -0.77286982181522
C            9.86479376653188        2.33562019621634       -0.54154390581773
C           10.60891743332965        1.11101938992553       -0.30323282254096
N           11.94160790758304        1.34537519714450       -0.39110087602098
H            8.90964716308189       -0.11343215672869       -0.03859117748075
H            8.87802359002750       -2.69679429606054        0.50444134052490
H           10.75133829069529       -4.53579579446531        1.00613888903210
H           12.67098478475885       -0.85945072035617        0.22538940093111
H           14.58321330437619       -5.47870254238987       -0.45985012401898
H           14.65076678905622       -7.86907799740189        0.20577035069474
H           12.42149052525621       -6.94881463962619        3.74755038274735
H           12.36452262220804       -4.55606086801161        3.09256907860336
H           16.11629612743484       -4.37188819346841        1.33880376115825
H           17.94883003509705       -2.48008191602953        0.80669002200937
H           17.86151203599300        2.50359273605224       -0.85829965841959
H           15.98080649254187        4.34386253002702       -1.31976795654416
H           14.08176715647366        0.74973807838059       -0.18218356669444
H           12.16088577776361        4.45878244802595       -3.04855490906921
H           12.10804712707539        6.87077948769595       -3.63197436317773
H           14.33877970533524        7.78051224017680       -0.08840435574076
H           14.38035094842856        5.37171985936016        0.50608351626342
H           10.61022114527035        4.34584012189779       -0.96637120890380
H            8.78960172189602        2.41700165403086       -0.51664868231566
C           35.30986059076616        0.06957223634065       -0.08676879238791
C           34.70304140395206        1.26216096333330       -0.45839099007515
C           35.35737313516748        2.45822628707040       -0.86732745676219
C           34.39823550095133        3.39718820153657       -1.12165874015407
C           33.12680383167771        2.80714523120919       -0.86695474784554
N           33.36096094353621        1.51823011442638       -0.48241369690190
C           31.86381283945718        3.39577144962821       -1.00213878589189
C           31.83299118757920        4.82223024021876       -1.39918143221472
C           31.18428065242809        5.21530450295532       -2.57421688674908
C           31.14890449661841        6.54643659418788       -2.94685303442861
C           31.76444564770136        7.49552473146673       -2.13541472405002
N           31.72589514666807        8.89519675686752       -2.51883807599645
O           31.14982726361774        9.17889861638985       -3.53784100831785
O           32.27291011163979        9.68721406306233       -1.79468665393734
C           32.41585778546175        7.12564885111009       -0.96209061544274
C           32.44965841831916        5.79114189341809       -0.60120727664707
C           30.64579212858371        2.74370702979600       -0.78866989367354
C           29.34996697442798        3.39353127217338       -0.87493746385529
C           28.42880184824689        2.44442122706865       -0.61034305595273
N           30.49090393582458        1.43394223211379       -0.45368144812143
C           29.16318745572090        1.22123027786168       -0.35062956227136
C           28.52397747831503        0.00291034741221       -0.04340237470923
C           29.15751424423425       -1.21260353891540        0.27832117196638
C           28.51056405481357       -2.44192953246744        0.57187516934052
C           29.47471587584521       -3.36824342754519        0.85820619542375
C           30.74116764283281       -2.72846704275129        0.75545877560738
N           30.49824462867711       -1.43124212479767        0.39139153194998
C           32.00361764374551       -3.30136850441329        0.95078183429020
C           32.03185796408820       -4.71600196377054        1.38605830081870
C           32.67435456907845       -5.68453343760385        0.60797043423507
C           32.70122075354364       -7.00686359765944        1.01148700444297
C           32.08387514511090       -7.36534338671758        2.20668952540160
N           32.10998216707740       -8.75192182681985        2.63579484838586
O           32.69149568500627       -9.54159889085777        1.93647520290328
O           31.54703223028642       -9.02816632365342        3.66422377458200
C           31.44093434442467       -6.41689780591009        2.99733388765921
C           31.41568208377551       -5.09820237386245        2.58226392052346
C           33.22252370318962       -2.63836212277119        0.76798374781284
C           34.52668251559376       -3.23135453730833        1.02397838247338
C           35.44040910000697       -2.28650693948434        0.72599463576762
C           34.69592280284616       -1.11277305162973        0.30375378604694
N           33.36322091928430       -1.35829788226193        0.35165578078153
H           36.39506240038990        0.07347419011914       -0.09950328885987
H           36.42594796676335        2.57082713008528       -0.95650765363603
H           34.55197064994426        4.40711625697648       -1.46554965953133
H           32.63389341620239        0.85018113631401       -0.24929651497186
H           30.71969545557633        4.46564171034003       -3.20396875725756
H           30.65265855112998        6.85943291638083       -3.85759618869418
H           32.88353257412207        7.88386031056749       -0.34555977492425
H           32.94003905373285        5.49349343014574        0.31836106561057
H           29.18769700559733        4.43673276083838       -1.09200699184145
H           27.35546424743906        2.53987380009969       -0.57747717950942
H           27.44299454493826       -2.59059936070734        0.55809958115371
H           29.32437280785425       -4.40616589454307        1.10632247088858
H           31.22246791596126       -0.73966079054759        0.22730316449435
H           33.13850937586168       -5.39616799463897       -0.32788539268402
H           33.19070730014808       -7.76487961462620        0.41188604764324
H           30.97247892068249       -6.72008105471047        3.92595591298563
H           30.93143938534157       -4.34849925922074        3.19720475023631
H           34.69548462352683       -4.22942804268347        1.39477767620850
H           36.51571985773565       -2.34410136912444        0.78652260679176
C           18.18570145269040       -0.01920893140019       -0.04738134649508
C           19.41034633415955       -0.01524747742560       -0.05560797466493
C           20.75257827938149       -0.01513781810543       -0.05885440313837
C           21.98340332549688       -0.01258144517495       -0.05873786947111
C           23.32089451545397       -0.01524136049053       -0.05769288166349
C           24.55167557092165       -0.01714560441642       -0.05558533603394
C           25.89391206515310       -0.01531205500974       -0.05081282880907
C           27.11861762634611       -0.00998380788601       -0.04770030341761
