114
 energy: -187.057907424907 gnorm: 0.000495394729 xtb: 6.5.1 (b24c23e)
Zn          15.29482344468588       -0.05168738671447       -0.00558736414617
C           11.87725313073620       -0.08293792525827       -0.01075591892026
C           12.50868159635845       -1.31988855098375       -0.05822083503069
C           11.83734791413174       -2.58953292137215       -0.07610836662964
C           12.79848043550199       -3.54636936107625       -0.10269419326323
C           14.06950953072714       -2.87152478961257       -0.10923622225682
N           13.85835209746616       -1.52437093030431       -0.07619719906310
C           15.32174545706834       -3.49592439897717       -0.11309287577680
C           16.56034777358443       -2.84634462324784       -0.07505059210118
C           17.83533518107923       -3.50495433963834       -0.11740674104367
C           18.78452870075160       -2.53613859341105       -0.08213622494929
N           16.76177857888237       -1.49192032448816       -0.02584786609873
C           18.10651837011356       -1.27587885564310       -0.02757217789217
C           18.74751036472242       -0.01895023172409       -0.00256024080651
C           18.08378253724858        1.22620256472991        0.02151805247659
C           18.73748711094004        2.50034273372084        0.00654622457225
C           17.77033206351908        3.45143953920906        0.03743049356160
C           16.50869967831500        2.76719388843360        0.07860557262886
C           15.25795144718093        3.39428486486962        0.10968368068177
C           15.24737288619207        4.87797943641990        0.17124426640209
C           14.67307154974880        5.62765304569382       -0.85613759383206
C           14.66716138910617        7.01320501610111       -0.79507390075408
C           15.23023768426938        7.66687205090315        0.29254241793634
C           15.80164615741274        6.92845550248506        1.31997574037872
C           15.81249671775929        5.54306737915823        1.26043052762787
C           14.01752842380124        2.74652023904062        0.09032501741703
C           12.73409874447506        3.39365717141064        0.16111982774047
C           11.79140871755627        2.41910905951516        0.12095965561179
C           12.48648747201006        1.16518591484216        0.03624558235254
N           13.83200808946184        1.39662994026813        0.02411188888470
N           16.73564745316417        1.41642885061529        0.05684931050947
C           15.33556050597174       -4.98047990945210       -0.16624331680281
C           14.81622718005812       -5.65054411014955       -1.27467024714696
C           14.83131666330737       -7.03628104458333       -1.32765902197703
C           15.35963486808894       -7.76940868206482       -0.27377083109756
C           15.87493339214872       -7.11036412917974        0.83415487820418
C           15.86576223541491       -5.72454261687092        0.88838039452271
H           10.79173987865213       -0.09300443900522        0.00187008654947
H           10.76645917488946       -2.71978140582838       -0.06240370576346
H           12.66443599254122       -4.61634521879169       -0.10523514325486
H           17.98455616713620       -4.57083656096308       -0.17855411220273
H           19.85350989433483       -2.66128391151051       -0.09834596735599
H           19.80316264013972        2.64703758178718       -0.03249122037823
H           17.89908432007995        4.52158719549699        0.01864801218422
H           14.24493003680333        5.11970329979755       -1.71325681368240
H           14.22209155399148        7.58539205593785       -1.60164164981853
H           15.22407033690599        8.75000109699667        0.33934621567818
H           16.24065753010878        7.43385959281863        2.17313512711525
H           16.24832617769265        4.96757155597528        2.06965541155093
H           12.57920099193783        4.45760223618536        0.24323202068769
H           10.71843151037950        2.52706443248536        0.15281869773775
H           14.41409331986495       -5.07905545154973       -2.10392463202068
H           14.43040976171221       -7.54586618161069       -2.19690118513522
H           15.36983819249183       -8.85270156652672       -0.31594195089680
H           16.28531763560432       -7.67849079345360        1.66171601967634
H           16.25801092771007       -5.21190922696885        1.75974063554753
Zn          26.24430138291161        0.05188733777634       -0.00337812878024
C           29.66187133919573        0.08330463226767       -0.00716340638172
C           29.03046215664038        1.32115877943419       -0.00088074396315
C           29.70180999063116        2.59037427596790        0.03640410124137
C           28.74068545447415        3.54747251466086        0.05137122232183
C           27.46965063573835        2.87356287012904        0.01549735681338
N           27.68079576785578        1.52624460283471       -0.00997073482966
C           26.21741662754438        3.49755176937686        0.03873178479033
C           24.97881567817744        2.84693493806010        0.04854646076932
C           23.70381935763601        3.50675118157668        0.03497960762500
C           22.75462972325975        2.53730978660651        0.02835212042728
N           24.77738693396334        1.49165269295195        0.03897176339094
C           23.43265039671461        1.27586427514685        0.02819478786799
C           22.79161182592675        0.01901589594818       -0.00114072289326
C           23.45529314080194       -1.22599097499830       -0.03141225361334
C           22.80159279130555       -2.49826900490804       -0.10173684582407
C           23.76875141172820       -3.44980082988567       -0.11239489255235
C           25.03038528670060       -2.76798086255470       -0.04169955233196
C           26.28113321164616       -3.39583316431384       -0.03789875764604
C           26.29172040411107       -4.88080518749256       -0.04077095764139
C           26.86603511537650       -5.58517021893325       -1.09972259804127
C           26.87195847698458       -6.97206696695639       -1.09886575812234
C           26.30888608715221       -7.67233861856301       -0.04065410080816
C           25.73747515451097       -6.97922539961678        1.01786838544467
C           25.72661004196543       -5.59255699219032        1.01852098134933
C           27.52155914138863       -2.74784851164374       -0.02908385391718
C           28.80498180549630       -3.39746346134830        0.01358244149721
C           29.74768074023015       -2.42210073832330        0.01579886876221
C           29.05261738482260       -1.16567391071430       -0.01441282232291
N           27.70709259681317       -1.39635620892040       -0.03659542702828
N           24.80344006170600       -1.41754493556984       -0.00469837633906
C           26.20360002622165        4.98301050198838        0.05014439486775
C           26.72292681815791        5.70058140994713       -1.02813557103855
C           26.70782367316206        7.08731104709397       -1.02089605281401
C           26.17949627688044        7.77397427453044        0.06383384087481
C           25.66420054704063        7.06743195716216        1.14209314458183
C           25.67339086205933        5.68056344535724        1.13608821228022
H           30.74738446758406        0.09279789159311        0.00591584083493
H           30.77269951407409        2.71989387086152        0.05577130882151
H           28.87473429477355        4.61654767821934        0.09529971686949
H           23.55459133593597        4.57427931650435        0.02013213150383
H           21.68564355328579        2.66303834234364        0.01766880020758
H           21.73591809104606       -2.64312901148808       -0.14702050689970
H           23.63999609329782       -4.51812347409134       -0.17766851739563
H           27.29417666860564       -5.04048607565929       -1.93397975840118
H           27.31703687533961       -7.50869502485058       -1.92951143025434
H           26.31506203663322       -8.75647861995167       -0.04091708648826
H           25.29847836157652       -7.52119648990450        1.84828708988934
H           25.29078755330054       -5.05274030240343        1.85197394445881
H           28.95987359984435       -4.46397222823291        0.04942648036791
H           30.82065674862341       -2.53134880217672        0.04296184097427
H           27.12505817358992        5.16564474688662       -1.88142737860274
H           27.10871082152976        7.63416429709434       -1.86719607375079
H           26.16927821172247        8.85807621560028        0.06874285498449
H           25.25380797240016        7.59908090596917        1.99354379157836
H           25.28114716230311        5.13057086032519        1.98436502376650
C           20.16005413041744       -0.00595292425267       -0.01064769068452
C           21.37906442072038        0.00636986187457       -0.00875394790533
