124
 energy: -239.002849122908 gnorm: 0.000649148503 xtb: 6.5.1 (b24c23e)
Zn          15.92600565103030       -0.04669522489458       -0.01161920326296
C           12.52055969638285       -0.05672571317970       -0.14950783435876
C           13.14996807145613       -1.28294749856587       -0.32458671805928
C           12.47528058049028       -2.53535757244452       -0.52367013824429
C           13.43350496751802       -3.48557895827077       -0.65647596344832
C           14.70684506558224       -2.82217689629288       -0.55121559524741
N           14.49947513903524       -1.49136880168982       -0.33929750915660
C           15.95894748171021       -3.44575621463981       -0.62418796586045
C           15.97268441834360       -4.90387275833680       -0.88882956785303
C           16.52638053295814       -5.78700231718791        0.04349809898172
C           16.53882111536157       -7.14853052877700       -0.19769261720260
C           15.99818786586691       -7.63276506450740       -1.38576804633891
N           16.01123879331490       -9.06053685516893       -1.64565790539482
O           15.53057850547707       -9.44375153966724       -2.68171189148518
O           16.50119022471181       -9.77566795085511       -0.80922202585730
C           15.44497740432332       -6.77074755823454       -2.32867384556481
C           15.43193713485243       -5.41159407989832       -2.07440743864021
C           17.19856083438820       -2.81320081965042       -0.47196378668372
C           18.47948725533780       -3.45069893043432       -0.60758414107184
C           19.42366910191269       -2.49698825746704       -0.40514885761697
N           17.38883719175125       -1.48450800857474       -0.20520566595498
C           18.73053038535459       -1.26764046053498       -0.15336965928888
C           19.35949903173304       -0.03458833236852        0.11044063409787
C           18.70499397943247        1.19235762799407        0.33787243588842
C           19.36894605670907        2.42459219835943        0.64681737081194
C           18.40548908837076        3.37050225455365        0.78619141362265
C           17.14252943187570        2.72569658884053        0.55205088442131
N           17.36131375525617        1.39953322597294        0.29462930919286
C           15.89065428362697        3.35038916712758        0.60773708323815
C           15.87321157764083        4.80825393674914        0.87293598862036
C           15.22730407604873        5.31275605918818        2.00625141890005
C           15.20676972027827        6.67217286952751        2.25834495747706
C           15.83320393888838        7.53791084179489        1.36595141803575
N           15.81048543894235        8.96609145833937        1.62285781803618
O           15.24578913256479        9.34547163858384        2.61701792777437
O           16.35669405929296        9.68545735119457        0.82572186744823
C           16.48013099565015        7.05698633941098        0.23082802590187
C           16.49955812787658        5.69521074952495       -0.00852080146940
C           14.65198488476472        2.71975656131457        0.43310151268792
C           13.37035667020791        3.37563049800897        0.43648733299342
C           12.43147645884584        2.42055274464295        0.22417900190745
C           13.12711456209009        1.17252941542890        0.07740230703433
N           14.46989959647036        1.38840937907919        0.20169340626355
H           11.43596512320147       -0.05956871432689       -0.19396392348247
H           11.40425723415053       -2.66056484724922       -0.54773769543356
H           13.29494821721858       -4.54518604534816       -0.79994074443889
H           16.93335491703073       -5.39890902647336        0.96999009422021
H           16.95915665153152       -7.84046264436907        0.52218435933248
H           15.03507293077292       -7.17197523723357       -3.24774443661027
H           15.01527483094604       -4.72938269648094       -2.80626805407032
H           18.63566029311658       -4.49130167003444       -0.84196704251229
H           20.49605879621775       -2.60709861281414       -0.42948798750613
H           20.43585143174288        2.54149962142706        0.75109442404955
H           18.53664908082365        4.41026674662223        1.03901948537610
H           14.75384443405093        4.62780554019573        2.70002903236523
H           14.71405747307218        7.07098692541369        3.13692637369213
H           16.95651835283827        7.75169858969679       -0.45045609043963
H           16.98857453420481        5.30988544905395       -0.89567097453849
H           13.21390949580004        4.43391949348044        0.57081842744465
H           11.36130911268332        2.54003309353765        0.16230001025987
Zn          29.39813449503195        0.04805054554715        0.00756353806141
C           32.80352534124770        0.10918642950761       -0.11616085584947
C           32.17410135463834        1.31165422011005        0.18098385630389
C           32.84873876142060        2.54750568463911        0.46540824889673
C           31.89048503307820        3.47819280745417        0.69847634838758
C           30.61716350262350        2.82357958772694        0.54773202680392
N           30.82458372924048        1.51031590699596        0.24564482705898
C           29.36500050445540        3.42899977694639        0.71362732614889
C           29.35113769160813        4.87998767802041        1.01485917531951
C           28.79656121244082        5.34929758850890        2.20982365420654
C           28.78401217363548        6.70196543163566        2.49656144032561
C           29.32541754793456        7.59619955096125        1.57704133777965
N           29.31190791340127        9.01732370794954        1.87109235286809
O           29.79426629786317        9.76080386648627        1.05514272483688
O           28.82141578655754        9.36685984503887        2.91442870156651
C           29.87961041076176        7.15043334051666        0.38024236995270
C           29.89267516919248        5.79507845551632        0.10648106110459
C           28.12543285332388        2.78546280282932        0.61714100325850
C           26.84447248916930        3.42742210132699        0.72936943932671
C           25.90034487508738        2.46740776525240        0.55900199543683
N           27.93522298406092        1.45359959403669        0.36663624256674
C           26.59353365045900        1.23310055851056        0.33292594312613
C           25.96462580835020       -0.00901606516380        0.11537257724544
C           26.61918674359940       -1.23161453983709       -0.13401083650409
C           25.95510108092845       -2.48953269137794       -0.31095958617414
C           26.91859857394526       -3.41880479478787       -0.53573937731893
C           28.18165109929566       -2.73344285891105       -0.50999467910239
N           27.96288626049112       -1.40753731409810       -0.25122269255123
C           29.43360901305696       -3.33351871409260       -0.69192049129588
C           29.45109310819594       -4.78434109467727       -0.99306751250572
C           30.09770778353923       -5.67724604788448       -0.13240000339056
C           30.11828855521700       -7.03189325322652       -0.40901403531023
C           29.49117991542498       -7.49951117827893       -1.56069854055231
N           29.51422260597317       -8.91962598165243       -1.85884835981575
O           30.07844449148247       -9.64457140226403       -1.07945193782100
O           28.96791420510016       -9.28716211558816       -2.86757658573408
C           28.84336926527445       -6.62781385235825       -2.43179238531365
C           28.82396757480444       -5.27578289611730       -2.14252322350225
C           30.67225113297241       -2.68337081081944       -0.61693463017509
C           31.95391102566694       -3.29248576338873       -0.85999465553861
C           32.89272387360178       -2.32741880810090       -0.69866951933043
C           32.19701382523050       -1.11553995970306       -0.36651693480317
N           30.85425943646750       -1.36240918058916       -0.33206739553689
H           33.88811333993952        0.12854400395361       -0.15646987568651
H           33.91975012821864        2.67276309861120        0.48967456711457
H           32.02908006433398        4.51438594238378        0.96236616108290
H           28.38895065820757        4.64226332381933        2.92298007240609
H           28.36296271016227        7.07365228208548        3.42297645465181
H           30.29017241051275        7.86685980836128       -0.32108964046764
H           30.30994343053922        5.43692524408707       -0.82746078439668
H           26.68828745371880        4.48008113530607        0.90170023274710
H           24.82795592650804        2.57868897035164        0.57684079742011
H           24.88811401398942       -2.63675787109425       -0.25905396650605
H           26.78729893787972       -4.47745095206557       -0.69147523643069
H           30.57170004346770       -5.30275580926217        0.76745565415942
H           30.61163016731732       -7.73122234551222        0.25527205621173
H           28.36632432150840       -7.01610937793812       -3.32363079872453
H           28.33439639209448       -4.58572481566566       -2.81986491349971
H           32.11040252123271       -4.32384404961206       -1.13257636389926
H           33.96287724580269       -2.41481158727297       -0.80110817312285
C           21.98720745899703       -0.02968094520324        0.15404260335734
C           20.76521368483635       -0.02938044146497        0.14314378742873
C           23.33694258845707       -0.02591502427179        0.15324001531459
C           24.55883415332941       -0.02591404133648        0.14086110544242
