187
 energy: -370.308692363312 gnorm: 0.000487593345 xtb: 6.5.1 (b24c23e)
Co          32.36777743016071       -0.00655077319417       -0.08015418668832
C           28.99742982892775       -0.00690568933334       -0.25414161257667
C           29.64730691628587       -1.21609046736885       -0.13136861140387
C           28.97848799135770       -2.47785536009750       -0.03557025381408
C           29.93614066640702       -3.43138819275001       -0.11019452083418
C           31.18749605169634       -2.74940139131952       -0.27115308477907
N           31.00616502280803       -1.39164742305994       -0.21190966918992
C           32.38835742704776       -3.37931716536118       -0.57057938004305
C           32.39740762878647       -4.84227991729774       -0.78955043429719
C           33.19377818706889       -5.67131485964192        0.00627533342123
C           33.20484712572431       -7.03946251316169       -0.19559920026342
C           32.41740687913590       -7.58285564468374       -1.20661624336459
N           32.42819801940228       -9.01890829083048       -1.42568102199769
O           31.73253431554100       -9.45324287196443       -2.30741181691457
O           33.13224500504242       -9.68614787961743       -0.71226165976348
C           31.62028618981758       -6.77475239699517       -2.01221019953483
C           31.61171829064821       -5.40857588009742       -1.79816237776971
C           33.57736229577832       -2.67446985658111       -0.69085354201787
C           34.82498442315770       -3.26092992626316       -1.07904914546930
C           35.77007450088418       -2.30208914714429       -0.92990994605946
N           33.74922331955768       -1.34812639741127       -0.37014878204855
C           35.09691341700698       -1.13370189276805       -0.45752696012767
C           35.76126021142095        0.01277709480682       -0.01755332353513
C           35.06955489951010        1.14173334632606        0.42620254475737
C           35.71071541488023        2.29901177398573        0.96533283692228
C           34.74477750641012        3.23265253758600        1.13906621171040
C           33.51918959426715        2.64737507882761        0.68397425629181
N           33.72180779078833        1.33830732927759        0.31140216062227
C           32.33184931529158        3.34679361047777        0.52670979495787
C           32.30598596708271        4.79817237010904        0.81169718234388
C           31.44146339605972        5.30739190522019        1.78563188756287
C           31.41177071844569        6.66248792534725        2.05985917966371
C           32.24939392199638        7.51717115807398        1.34892069641771
N           32.21988313136029        8.94199095961474        1.63053944130578
O           31.45478406025389        9.32694831942938        2.47698063881097
O           32.96235164424019        9.65008177574022        1.00025777223755
C           33.11405638008195        7.03113511630903        0.37240276917092
C           33.14052542858791        5.67348197514369        0.11013869430168
C           31.16463946140360        2.72692251960534        0.09878445425679
C           29.93525215834078        3.41623094016257       -0.16582463130284
C           28.99818365077485        2.46823526924225       -0.40027254574312
C           29.65659302777328        1.20267254558442       -0.28205648338938
N           30.99724739408329        1.37392452549647       -0.03962449836106
H           27.91589176624113       -0.00670668691311       -0.31819353930967
H           27.91221660749132       -2.59741133535590        0.07064940363126
H           29.81950251808686       -4.50200444755585       -0.06535452080341
H           33.79375944918836       -5.23676900426109        0.79730201909475
H           33.81348916003804       -7.69097886600920        0.41985216615861
H           31.02023593506215       -7.22211949913927       -2.79548015591068
H           31.00539855956920       -4.76708726582849       -2.42695911716391
H           34.94991032521872       -4.27496097760841       -1.42211157788463
H           36.83100131262462       -2.36653654171605       -1.10977407422631
H           36.76534047048645        2.37154650188131        1.17659092762611
H           34.84287911922164        4.23025196885566        1.53493077678554
H           30.80212051004121        4.62974510679229        2.33933863665511
H           30.75036562114779        7.06580910715412        2.81722007238692
H           33.75197098559710        7.71833482036430       -0.17031828081814
H           33.79980964179610        5.28410700392680       -0.65683927552428
H           29.81921150112827        4.48785682780874       -0.16997862900816
H           27.95053204254447        2.59326540710681       -0.62230546509067
Co          59.13791306157999        0.06519950016007       -0.03197275430265
C           62.50470833533040        0.12086193129988       -0.18093339629831
C           61.85540578837893        1.19158903263383        0.39572463900416
C           62.52091661312380        2.31915405510956        0.97392364442335
C           61.56416006516295        3.23768824108926        1.24532415777018
C           60.31680853106963        2.67576785540765        0.81498800844911
N           60.49807576415677        1.39335052543308        0.36613687987599
C           59.12200214602614        3.38102979458820        0.73853349691021
C           59.11568294562547        4.82274350927404        1.06711016397147
C           58.28515253365958        5.31312984227756        2.07956140553189
C           58.27669829001730        6.66057821194176        2.39069643711815
C           59.10185879449773        7.52680220623502        1.67919391959822
N           59.09483406511349        8.94364312892948        2.00005798158875
O           59.82494021597227        9.66193750846896        1.36691671191259
O           58.35940830735528        9.31204352879327        2.87946763065637
C           59.93351830637702        7.05969745985796        0.66550066709061
C           59.93858806113061        5.70969938879404        0.36588383481070
C           57.93684097607164        2.77426684271364        0.34733444668399
C           56.69368558118715        3.46361323326193        0.17227478718394
C           55.74688222875860        2.51581855476747       -0.03067878100922
N           57.76127854159138        1.42044565359102        0.17944849411830
C           56.41497627743180        1.25374624387008        0.01319415328327
C           55.74913774252474        0.02548438237318        0.04008277587874
C           56.44317001525294       -1.18747645541192        0.06112583037312
C           55.80804187223539       -2.46283684514615        0.16530830561423
C           56.77146746736409       -3.39417473278472       -0.03578914154348
C           57.98937188279614       -2.68128900523896       -0.28125237674525
N           57.78634419849854       -1.32699709184977       -0.14655849772265
C           59.16663232282568       -3.26794425220544       -0.72253547488034
C           59.18701370163623       -4.71872629607136       -1.00767957524745
C           60.08576284349837       -5.55511019752521       -0.33810372691098
C           60.11017697423837       -6.91297155334094       -0.59865021661442
C           59.23186630292415       -7.43893027373802       -1.54174835167469
N           59.25591488648594       -8.86405885664651       -1.82234218071366
O           60.05453460277774       -9.53657738894317       -1.22255108685678
O           58.47567626403773       -9.28468622769807       -2.63731599265937
C           58.33176721188779       -6.62348884288841       -2.22165174042421
C           58.31159674938701       -5.26768899347699       -1.94977178732689
C           60.32886045395649       -2.52920019483216       -0.91062484294567
C           61.55155957526325       -3.06146812610486       -1.43813276184416
C           62.49243183921004       -2.09919737879514       -1.29150884963829
C           61.84223124761203       -0.97892583396209       -0.68221752643871
N           60.50224579534286       -1.22840967919521       -0.51679419556487
H           63.58663558389853        0.14083222782736       -0.23439851009400
H           63.58470848980922        2.38297201593850        1.13754049314446
H           61.67943817787521        4.21157156019010        1.69266558296528
H           57.65644384026601        4.62651551726637        2.63438485522761
H           57.64142527830703        7.04916015613686        3.17754587627783
H           60.56291576753922        7.75537133735633        0.12364044155157
H           60.57155335945121        5.33566823639622       -0.43034086330037
H           56.57207992036353        4.53411549424329        0.20117474813083
H           54.68791753503925        2.64285011357256       -0.18742864442597
H           54.75851005199888       -2.60955077593388        0.36305744800687
H           56.67601761975818       -4.46763987589399       -0.02382084286647
H           60.75629330278910       -5.13497688724521        0.40244614954867
H           60.79885424258286       -7.56978039118409       -0.08091182220295
H           57.66160858152732       -7.05722707762165       -2.95409979147298
H           57.62485449926997       -4.62020256358329       -2.48239395122867
H           61.66185478703414       -4.04588576038583       -1.86313650603777
H           63.53745532419627       -2.13004681139676       -1.55508365293288
C           38.38792039469517        0.03087003619501       -0.00209673898590
C           37.16590381918187        0.02544435229877       -0.00879033796903
C           39.73754415549931        0.03248281569680        0.00318041519717
C           40.95985739317246        0.03119043574469       -0.00000345215461
C           51.77578374269633       -0.00665577944965        0.05528898118726
C           50.55291012287758       -0.00890031207948        0.04897829065671
C           53.12394598789094        0.00021395120443        0.05640774467145
C           54.34659246872729        0.01029321860213        0.05223416455814
Co          45.75718465996515        0.00964130487948        0.02060692649086
C           42.36329310534666        0.02493223064576       -0.00375791452837
C           43.03938471583087       -1.15614694800236        0.31474487701962
C           42.38447081792668       -2.36703294583566        0.69524140005244
C           43.33508259470947       -3.33320899508132        0.71311393515376
C           44.56509329949992       -2.70714348362307        0.33295907223927
N           44.38165638062826       -1.35678312581039        0.15514619422462
C           45.74270962394812       -3.39034577929835        0.05729967541916
C           45.73517695633799       -4.86876020196579        0.08652014344948
C           46.59105770389237       -5.56190669259663        0.94808041785087
C           46.58444285148538       -6.94438551863012        0.98271597428274
C           45.71858935775408       -7.64007403411434        0.14404814594620
N           45.70984596046114       -9.09309512849358        0.17454199914639
O           44.94810086989227       -9.66082135347264       -0.56474278920487
O           46.46464048462619       -9.63820242796453        0.93778581348491
C           44.86064896990482       -6.96945829457088       -0.72272518874963
C           44.87042846980800       -5.58668394807242       -0.74530649580264
C           46.92704211767864       -2.72829775303932       -0.23623127826919
C           48.15720338641454       -3.37986328636792       -0.57160643651031
C           49.11791834545434       -2.42390347922270       -0.56683442487113
N           47.12054293482205       -1.37214369977418       -0.11308470684013
C           48.46831130211168       -1.19306525620149       -0.24546714886853
C           49.15125124868885       -0.00539161521631        0.03386289578463
C           48.47093641337092        1.19006087329731        0.28573052194456
C           49.12178137243986        2.42055529782945        0.60526425514365
C           48.17257428234455        3.38680096198265        0.55087508268721
C           46.94741408986807        2.73999510697177        0.19026722787316
N           47.13164711579360        1.38118467141438        0.09583775427966
C           45.77513546066981        3.40601322340352       -0.14256587214392
C           45.79038109330929        4.88290569552150       -0.21472214544481
C           46.66817676704734        5.53383202548291       -1.08719297346303
C           46.68802618437276        6.91443922772401       -1.16356392311701
C           45.82682106556040        7.65099115986904       -0.35554329523007
N           45.84577928614154        9.10230462910943       -0.42979573168501
O           46.62308100362116        9.61009448311838       -1.19621406998681
O           45.08236385139520        9.70607067597057        0.27857021264585
C           44.94833598523508        7.02282464779341        0.52239267573058
C           44.93196835297571        5.64136927795299        0.58698166776694
C           44.59197034734159        2.72856115536127       -0.40513177177136
C           43.36507418554653        3.36053131652438       -0.78671079672874
C           42.40296925299727        2.40762047055709       -0.73192412486775
C           43.04877615708116        1.19662373409872       -0.33592384479882
N           44.39613139123863        1.38239185918333       -0.20375096811824
H           41.33145174765546       -2.45263938298687        0.90937402216319
H           43.22338106989829       -4.37619141157807        0.96060590939263
H           47.25123855838513       -5.00812542540914        1.60535032677187
H           47.23936451053749       -7.49044872194936        1.65099670911033
H           44.19866875535664       -7.53490345495786       -1.36753330427302
H           44.21577387658223       -5.05259440568624       -1.42403380764171
H           48.26253696601712       -4.43231315695596       -0.77835699130419
H           50.17431347863330       -2.52792431277900       -0.75461855901498
H           50.17161723852144        2.51796693189440        0.82976797878608
H           48.28188082165664        4.44260523647757        0.73769232459135
H           47.32525445053019        4.94802160313114       -1.71932562457086
H           47.35987461875620        7.42777397104900       -1.84090997820977
H           44.29172651542628        7.61973981425799        1.14389806233175
H           44.26219970972939        5.14061883477264        1.27628647049441
H           43.26245389263090        4.39914024087714       -1.05547670455142
H           41.34807161773201        2.50162868065256       -0.93287308357301
