140
 energy: -223.583368377023 gnorm: 0.000544267696 xtb: 6.5.1 (b24c23e)
Ni          15.48705139565035        0.15688723424144       -0.21650768097570
C           12.13945542461313        0.32266059763816       -0.73118381951692
C           12.78243146299692        1.46102271847990       -0.29111478673834
C           12.10151815150168        2.68405418627912        0.00650858010356
C           13.02586040358199        3.52690600844960        0.52350423469367
C           14.27928562089017        2.83119750335004        0.50582749468552
N           14.11725555817511        1.56080223989513        0.01124305071717
C           15.47996149398879        3.38489461891210        0.93002841433320
C           16.69297343518851        2.71826416901332        0.82058721990016
C           17.95604366022235        3.32697577398340        1.11007307753968
C           18.91107490434058        2.42799991290830        0.77181242594773
N           16.87465556507834        1.44638631925989        0.32614879285480
C           18.23025145096486        1.26675257588858        0.29454773217704
C           18.89476987967371        0.11173286268775       -0.12539655947070
C           18.21952263308382       -1.06084166154047       -0.47260863922801
C           18.88887431953525       -2.28508316239608       -0.77819438806951
C           17.92567237423271       -3.22173025345182       -0.95175140810460
C           16.66848028448951       -2.56112823893074       -0.77214169124630
C           15.44197834559852       -3.19181111369167       -0.93487964775572
C           15.43193200514355       -4.65479858745859       -1.18377879685906
C           14.98070607462101       -5.16596755844334       -2.39822349381091
C           14.98022502304446       -6.53872212875535       -2.63006795633555
C           14.47845579675583       -7.07935647553839       -3.94178988451018
C           15.43142493002137       -7.39806881073012       -1.63471130569826
C           15.88646173848212       -6.90149008406011       -0.41531989390143
C           16.38726962275135       -7.84650019312705        0.64318837221369
C           15.88753675750375       -5.52925659081916       -0.19702778160136
C           14.23767206549889       -2.50120445314047       -0.92087648675167
C           12.96405836612343       -3.10677246976333       -1.17894631728735
C           12.04839505143324       -2.10986613712337       -1.17862087921627
C           12.75623541235361       -0.90244535992802       -0.88010948937119
N           14.09522691663844       -1.15105766124065       -0.71434832367534
N           16.86172752148665       -1.22880257612863       -0.48727374585440
C           15.48343197290818        4.76585370694316        1.47396927698786
C           15.13356117589280        5.84561009113271        0.66518020496880
C           15.14562168603911        7.14060818551185        1.17296978338740
C           14.79150757075873        8.30552474316095        0.28847952656446
C           15.51136261773168        7.34970464520892        2.49912336718723
C           15.86538714958589        6.28161438716607        3.31819020080621
C           16.24087674062502        6.51817091067687        4.75605057696565
C           15.85048375103408        4.99131457543770        2.79959467315810
H           11.07276947526102        0.38006584228741       -0.91458941402019
H           11.04638497525844        2.84831426820630       -0.14455900949252
H           12.88386590931750        4.53129989487957        0.88796312671085
H           18.08461506868917        4.32364061576799        1.49948245609389
H           19.98269717218827        2.52529709066497        0.83788169800272
H           19.95928660092717       -2.39965707967213       -0.83644572286164
H           18.04344385568145       -4.26430568176377       -1.19832139629692
H           14.64594569313755       -4.48583077529415       -3.17369409958573
H           14.81967497848531       -8.10253864778534       -4.09869686901745
H           13.38622010421354       -7.07684226207295       -3.95157770697470
H           14.82395722955701       -6.46106816166653       -4.77103159913357
H           15.43212600725420       -8.46916747970546       -1.80909244151340
H           16.47721900637107       -7.34295038668443        1.60552531927413
H           15.71118211895215       -8.69551614400882        0.75159063787823
H           17.37004773197437       -8.23218492717325        0.36351369249132
H           16.23160248355854       -5.12886622839298        0.75023005464271
H           12.80467905458001       -4.16018641578479       -1.34247488757229
H           10.98406829078867       -2.16942580134189       -1.34226415055716
H           14.86748201213725        5.67217398266852       -0.37175625196401
H           14.35290023004806        9.11605487264242        0.87093857652365
H           14.08592436518003        8.00478720355003       -0.48624337543210
H           15.69084719312800        8.68687058131865       -0.20058030843122
H           15.52297235019330        8.35841999583476        2.89914449651070
H           15.34435680312665        6.50935290887084        5.38016483287811
H           16.72717540234558        7.48662033576945        4.87556897548486
H           16.91259094163286        5.73849653823568        5.11558060479653
H           16.11501197666830        4.14913027452367        3.42960447846997
Ni          28.91039218501776        0.16486637085639       -0.21116177107872
C           32.25709642209785        0.61756281626619       -0.51335677551638
C           31.61649806202123       -0.13007526052605       -1.47961783667799
C           32.29982199746252       -0.76461444031478       -2.56519586369698
C           31.37699481555962       -1.50083322042828       -3.22732916108382
C           30.12179051335371       -1.28385435379863       -2.56942382949472
N           30.28176795643508       -0.44879738804500       -1.49159394740518
C           28.92038520956321       -1.84034171788840       -2.98780302882318
C           27.70562852362167       -1.54016226864820       -2.38604956597478
C           26.44242497547273       -1.97836670654813       -2.89794142175641
C           25.48701286593884       -1.39865601317018       -2.13273038782598
N           27.52344084016016       -0.71115350278246       -1.30234179119937
C           26.16756120530641       -0.62369644471825       -1.14462650327188
C           25.50245581044800        0.09716000119821       -0.14960405083963
C           26.17697182002985        0.75115570872617        0.88418878537441
C           25.50701031677339        1.38044455865233        1.97745168230829
C           26.46961265435867        1.80294391185240        2.83189324397869
C           27.72710435577285        1.44912140488434        2.24657980738276
C           28.95308518439322        1.78196051985021        2.80726582087976
C           28.96297800760896        2.42869909521482        4.14304815362740
C           29.40583726598150        3.74074008058804        4.29148523859147
C           29.40769556590861        4.34818763961271        5.54415178216032
C           29.90027955918827        5.76245755244306        5.69218558580447
C           28.96642995246131        3.63040337128818        6.64986099971745
C           28.51968708094790        2.31760000315876        6.51679308861082
C           28.03057679825320        1.56328811412724        7.72355770104740
C           28.51682377126899        1.72339298961860        5.26071961442829
C           30.15744799648859        1.58194450201128        2.14624385455821
C           31.42988645199462        2.00419396138630        2.65416899857891
C           32.34539254927836        1.73109133518126        1.69523598768646
C           31.63898151146405        1.10424931044123        0.62005688265515
N           30.30079369359066        1.00870376088431        0.90662083943028
N           27.53461995542714        0.80991754454555        1.04326747008155
C           28.91673075113026       -2.74675131479899       -4.16308318956480
C           29.27542272558507       -2.27026590944116       -5.42282685271931
C           29.25994834946226       -3.11522127890243       -6.52759386295340
C           29.62235729972423       -2.58909821349994       -7.89014567012645
C           28.88209254593118       -4.44449843260873       -6.36418083037444
C           28.51982438862260       -4.93422343511609       -5.11287085378211
C           28.13067427988809       -6.37817534318083       -4.94505990960052
C           28.53814358239764       -4.08000879602101       -4.01541355430524
H           33.32326607999892        0.78057077504011       -0.62039354754119
H           33.35543749091416       -0.66685865073434       -2.76323938407410
H           31.52090364238222       -2.13741889747995       -4.08514141113210
H           26.31437500979650       -2.62740103000547       -3.74868105158272
H           24.41523164310666       -1.48148554540625       -2.21407774643035
H           24.43660023967612        1.46929732461701        2.07015120624364
H           26.35133289400086        2.32520752883901        3.76725912333859
H           29.73362867066568        4.29640978081613        3.41976112265689
H           29.57088373928953        6.19415436050453        6.63719334065070
H           30.99215934368422        5.78040883901667        5.66875943914648
H           29.53585703144931        6.38468844302479        4.87399718133531
H           28.96700529243399        4.09775343768557        7.62928381625264
H           27.93346584891822        0.49966583074797        7.50678726528975
H           28.71819241661988        1.69073557880111        8.56068985193124
H           27.05340870945239        1.94290158330011        8.02981863906851
H           28.17872254941344        0.69968614709352        5.14330101622102
H           31.58862057688261        2.45508956533421        3.62023873920650
H           33.40890362288076        1.90990536482943        1.70540059222927
H           29.55060773177511       -1.22793261630918       -5.54101956649624
H           30.06609086267495       -3.37339243638556       -8.50382979411857
H           30.32620301543063       -1.76025623823223       -7.81212693890912
H           28.72573894232404       -2.22682670318913       -8.39832111967506
H           28.86720480708010       -5.10682520116823       -7.22370738022895
H           29.01980796383245       -6.98222076718101       -4.75025975765017
H           27.65382046508107       -6.75884197284074       -5.84860954861940
H           27.44623105261146       -6.50105463761390       -4.10550846619560
H           28.26661092611841       -4.45115993303536       -3.03322032368727
C           21.52269944511030        0.11762721271150       -0.15737828890266
C           20.30176751502666        0.11240394294218       -0.14269522773194
C           22.87437083099954        0.11777247644183       -0.16103545776452
C           24.09540850291117        0.11168305977810       -0.15561194774847
