318
 energy: -551.422738602222 gnorm: 0.000598473566 xtb: 6.5.1 (b24c23e)
C           51.98434597488347       -0.05700532562958       -0.00314442543184
C           52.60609298995873       -1.29880783230166       -0.03500242884468
C           51.99014689440307       -2.58290975171085       -0.06698588827553
C           52.98091818827542       -3.52379619002801       -0.09154082201572
C           54.23320435671093       -2.84457431450484       -0.07528694147115
N           53.95581635203639       -1.50857492016346       -0.04134001718030
C           55.50096215430415       -3.41453792345537       -0.09039868714968
C           56.72285289706302       -2.75729555232208       -0.07432908591624
C           57.99871316254234       -3.45076444233721       -0.09207675642920
C           58.95202668432462       -2.49633724813106       -0.06821792682722
N           56.92138225509927       -1.41129872079562       -0.04057582575392
C           58.25488968785706       -1.22314551038301       -0.03613098816560
C           58.91425467214444        0.02369862230803       -0.00534488090322
C           58.26605956603855        1.27324964973264        0.02560906586908
C           58.87612357402940        2.55625374408578        0.05718085860085
C           57.88124423662214        3.49462512646190        0.08100242513878
C           56.63346088791545        2.81089016989538        0.06470908503450
N           56.91856190749264        1.47247700794429        0.03119598473304
C           55.36702676796044        3.38223531322655        0.07994413651037
C           54.14409639383552        2.72302880132778        0.06459648375902
C           52.86162910626398        3.40988473280213        0.08303364529623
C           51.91476019552852        2.45046063123524        0.05994190018655
C           52.61958138536310        1.17882888949469        0.02738040540830
N           53.95853537183036        1.38257560645151        0.03122893638034
H           50.89950721305156       -0.06155290884216       -0.00231003946085
H           50.92463352961052       -2.74953388662119       -0.07037942103756
H           52.86832236879093       -4.59606504317855       -0.11856058836271
H           54.65099640755831       -0.76998256891926       -0.02317701640003
H           55.52919244723980       -4.49921660454186       -0.11777645864506
H           58.11520078847529       -4.52286735550331       -0.11907476331754
H           60.02427173268514       -2.61177596054829       -0.07135366968277
H           59.94082361530121        2.72666814049839        0.06088960525336
H           57.99018054740487        4.56714107717475        0.10762790259524
H           56.22592812088733        0.73112057622470        0.01323086069331
H           55.34043610518625        4.46688139072242        0.10704013053336
H           52.73893283637879        4.48146686426036        0.10999882241977
H           50.84124254913782        2.55806928851101        0.06369492871918
C          154.24445457315582        0.05479988778607       -0.00817773811815
C          153.62305581515616        1.28978414592273       -0.14357524166932
C          154.23938368298528        2.56610110632165       -0.28670246987821
C          153.24890094737242        3.50225500516708       -0.38698008949860
C          151.99641343968619        2.82775566922203       -0.30849799222710
N          152.27340302994057        1.49922483715438       -0.16262629272735
C          150.72883793105129        3.39530168562713       -0.36718119023782
C          149.50673421195020        2.74252726465541       -0.29231851118784
C          148.23109412112848        3.43277654557405       -0.36539058920325
C          147.27747423346216        2.48416450077651       -0.26023438206645
N          149.30777322231711        1.40422116443038       -0.14535317321077
C          147.97420193488543        1.21776182574903       -0.12297885874634
C          147.31447951208150       -0.02189134684687        0.01243208864361
C          147.96233091495677       -1.26456259209969        0.14863871336997
C          147.35188802211982       -2.53993757484653        0.29024625681525
C          148.34648795330651       -3.47318960332347        0.39367474711041
C          149.59447325280428       -2.79385263067219        0.31781346942630
N          149.30977047495952       -1.46309307483963        0.17023350137095
C          150.86072545798723       -3.36240949485460        0.37999839074823
C          152.08386585678704       -2.70768073686602        0.30517727786281
C          153.36611345100746       -3.39123684840480        0.37884058084168
C          154.31328478630121       -2.43801982084494        0.27006572029893
C          153.60886564746050       -1.17343609986691        0.13041085231960
N          152.26984865367973       -1.37519736022945        0.15599944607399
H          155.32929079735428        0.05866892742071       -0.01163759178394
H          155.30494291127138        2.73105223532275       -0.30834574543379
H          153.36182205285036        4.56829672748347       -0.50518348820740
H          151.57800713434227        0.76532546626447       -0.07930725669981
H          150.70095777852740        4.47384223805313       -0.48570811606841
H          148.11495378993226        4.49893088968386       -0.48171223628779
H          146.20526609072462        2.59949152242179       -0.27104425694260
H          146.28713826928836       -2.70899542705865        0.30940506141483
H          148.23723181102153       -4.53944100481720        0.51214794378680
H          150.00261678712511       -0.72626293095384        0.08826833467711
H          150.88696350985066       -4.44073414714356        0.50010464349859
H          153.48846879327772       -4.45659093995399        0.49766724385622
H          155.38676586965562       -2.54563596878184        0.27966146457708
C           61.54174612480134        0.04316467767318       -0.00375015073550
C           60.31901764275197        0.03377964061645       -0.00478094415775
C           62.89113337555830        0.04913483305636       -0.00355313227690
C           64.11402266007683        0.05113956744724       -0.00194063394301
C           75.16043194833406        0.02905091491132        0.00799204757248
C           73.93704235203566        0.03185758223073        0.00707406520852
C           76.50978896595687        0.02942390495178        0.00951267228128
C           77.73315429829603        0.02681213449903        0.01054507289635
C           88.79530475445280       -0.00193720932430        0.00244717494968
C           87.57173860753896        0.00030757052433        0.00267204360275
C           90.14498329850694       -0.00005383347257        0.00128299017067
C           91.36853128436735       -0.00136603089151        0.00175726863962
C          102.43928025436890        0.00016454501130       -0.00513057132981
C          101.21567671557764       -0.00162904257002       -0.00691181161301
C          103.78907344382702        0.00480371518176       -0.00251497403122
C          105.01269512068781        0.00578456207496       -0.00091661012173
C          116.08344339184544       -0.00184961389524        0.00365711368526
C          114.85987902753905        0.00036782560276        0.00319598658175
C          117.43311589050332        0.00116155710264       -0.00376563613628
C          118.65666236205152       -0.00121940475708       -0.00390446079128
C          129.71878831893346       -0.02371024509575       -0.00361069196921
C          128.49540251051866       -0.02036993040982       -0.00364688692079
C          131.06815555192102       -0.02386672939456       -0.00366697329287
C          132.29152144072552       -0.02720800577608       -0.00458336243072
C          143.33756685481333       -0.04797023677705        0.00972993116946
C          142.11471006659536       -0.05056354773924        0.00668425110676
C          144.68696022879016       -0.04173514377879        0.01127520487028
C          145.90971196296508       -0.03177946313798        0.01251918786919
C           65.51782108362150        0.05308439883572       -0.00037878151245
C           66.16164116038942        1.30601319228656        0.01378812771143
C           65.55401156988675        2.58903709298184        0.02709265532604
C           66.55224893678682        3.52555703954058        0.03766471381462
C           67.79752939830145        2.83898897777232        0.03100707165964
N           67.50978075166528        1.50182364642523        0.01672418267887
C           69.06499970308134        3.41267556539492        0.03734127675000
C           70.29637457886228        2.77540932890438        0.03110984668429
C           71.55987050326820        3.49161302092536        0.03861529067947
C           72.53053104140064        2.55426269375801        0.02966380009360
N           70.51977788335265        1.43279520870471        0.01789946790105
C           71.85656143827362        1.26913525800661        0.01686086333695
C           72.53321448420397        0.03080095484368        0.00569848932144
C           71.88839246431547       -1.22198942584089       -0.00670687390084
C           72.49542176397124       -2.50546337362541       -0.01829204042919
C           71.49692020061222       -3.44150851668868       -0.02842027317488
C           70.25176707806197       -2.75456181829650       -0.02329845649297
N           70.54018078907299       -1.41723723566398       -0.01009874065485
C           68.98474350256858       -3.32861162144316       -0.03058892900081
C           67.75296818381887       -2.69167685516856       -0.02604954566669
C           66.48926997537063       -3.40758415408858       -0.03508229558945
C           65.51891668626142       -2.46995361128078       -0.02696032893530
C           66.19345365795391       -1.18518069786507       -0.01286442239855
N           67.53041384270985       -1.34929862197240       -0.01279693337297
H           64.48972503179829        2.76203004761955        0.02830180336697
H           66.44539221762420        4.59855897763545        0.04903713688284
H           68.19635462928157        0.75454915785290        0.00916289567013
H           69.08147343192053        4.49821565983499        0.04856758346059
H           71.65719823170431        4.56593574061817        0.04922475510188
H           73.60060802837785        2.68869609770140        0.03129540966410
H           73.55957020670539       -2.67897598867781       -0.01876117567033
H           71.60308252824227       -4.51457769769648       -0.03858087039365
H           69.85367731381569       -0.66986166289388       -0.00371260981557
H           68.96842828583631       -4.41415353766541       -0.04125083588515
H           66.39137249963927       -4.48183433341044       -0.04609615251949
H           64.44880231358611       -2.60396142859122       -0.02980533306837
C           79.13690834846595        0.02704798360868        0.01031371590614
C           79.78394112869412        1.27885334421116        0.00920009364362
C           79.18088460936355        2.56404637752566        0.00900922416373
C           80.18253252658262        3.49696477252326        0.00714783382758
C           81.42563662463215        2.80613406174715        0.00616699683864
N           81.13285942217284        1.46992938783836        0.00765990635157
C           82.69434663102430        3.37728356547435        0.00362006419218
C           83.92652690729146        2.74114513788801        0.00231150251450
C           85.18886390180451        3.45963207537983       -0.00077811281685
C           86.16139824069640        2.52410308127999       -0.00084408899767
N           84.15268812966090        1.39906362419418        0.00375182921331
C           85.48998839560295        1.23773753741935        0.00210993834056
C           86.16769178415973       -0.00025234206239        0.00345830099433
C           85.52011016195655       -1.25192272649044        0.00601512570265
C           86.12271424192416       -2.53738037695507        0.00723791059467
C           85.12085708803575       -3.47002156629287        0.00955898340278
C           83.87787536149274       -2.77896260284015        0.00979284178467
N           84.17107681971882       -1.44272207463042        0.00760711816996
C           82.60938982474710       -3.35047092188803        0.01180653171180
C           81.37697285182800       -2.71467351459799        0.01204019510081
C           80.11448472909527       -3.43291346065148        0.01395831534140
C           79.14217177808565       -2.49712093375633        0.01331207934237
C           79.81401932138037       -1.21103322559841        0.01116059574290
N           81.15127178833650       -1.37265071053855        0.01050495883990
H           78.11726323588671        2.74092604653061        0.01013663164388
H           80.07945792660826        4.57039251306524        0.00647823304069
H           81.81592354460011        0.71931701697679        0.00736428999232
H           82.71140783864517        4.46294310174787        0.00235294608736
H           85.28431549901960        4.53417759001296       -0.00254488848166
H           87.23122124998434        2.66059787501913       -0.00270443848224
H           87.18626105494114       -2.71458814473118        0.00639005971256
H           85.22348579704943       -4.54348991252136        0.01095056259263
H           83.48808307595881       -0.69201670040310        0.00724697393635
H           82.59254427828878       -4.43613359976275        0.01334083710807
H           80.01857439155977       -4.50741762078181        0.01549310709358
H           78.07228676526779       -2.63327042782004        0.01426316992372
C           92.77254824642905        0.00216707770133        0.00020147702830
C           93.41751935817571        1.25520532885623       -0.00968818886422
C           92.81302662733020        2.53968112729494       -0.01828306695559
C           93.81361736323937        3.47369789557156       -0.02687057571771
C           95.05768201063542        2.78445652549113       -0.02372695413619
N           94.76631232791944        1.44796101746376       -0.01317394239226
C           96.32522313716930        3.35830481654808       -0.03034978852674
C           97.55984916965787        2.72672526432094       -0.02736586502380
C           98.81937608304163        3.45023882617330       -0.03485188652083
C           99.79575181057081        2.51869754436566       -0.02831539143482
N           97.79156356231437        1.38573424730813       -0.01682868008746
C           99.12960093282483        1.22973281567940       -0.01698110291106
C           99.81154884414151       -0.00593011927212       -0.00717243609805
C           99.16645598493467       -1.25893534948073        0.00283596110110
C           99.77076485315158       -2.54350603358143        0.01198832686856
C           98.77007609703145       -3.47741785996290        0.01955414019827
C           97.52605333585063       -2.78809065800178        0.01533284476390
N           97.81760505258929       -1.45159437876342        0.00511743728421
C           96.25856224886590       -3.36205610775603        0.02083026043041
C           95.02383503217746       -2.73062387146413        0.01756760423430
C           93.76424534980022       -3.45406408517825        0.02442447244362
C           92.78793107334923       -2.52243304988706        0.01875048731187
C           93.45422526110862       -1.23355766718687        0.00839248333367
N           94.79224857879566       -1.38965019680288        0.00792182820281
H           91.74921682835219        2.71539657117615       -0.01788407835435
H           93.70929169474556        4.54698019893782       -0.03471368603954
H           95.44982620734316        0.69770895446426       -0.00868031913360
H           96.33912549032672        4.44401511465904       -0.03883498616010
H           98.91059202868036        4.52511908355530       -0.04379730184845
H          100.86502224412132        2.65950286558777       -0.03077319169578
H          100.83455075447375       -2.71933442019757        0.01252057624587
H           98.87423318898013       -4.55071734054248        0.02741970296323
H           97.13412646152881       -0.70130303678014        0.00003591848046
H           96.24473917663209       -4.44777246432562        0.02889440482668
H           93.67287460630965       -4.52893860412030        0.03251004112629
H           91.71863303590536       -2.66309855687498        0.02114152033399
C          106.41681788393872        0.00950171555276        0.00170300425644
C          107.06260972900861        1.26203042664747       -0.01794825853081
C          106.45906018685692        2.54681110865049       -0.03949638124964
C          107.46030180381022        3.48005718872590       -0.05359733637127
C          108.70391797497713        2.79009336965549       -0.04120525684299
N          108.41157442084049        1.45390703026419       -0.01961997113407
C          109.97175297309170        3.36325594423891       -0.05001932489402
C          111.20611046194855        2.73117483848965       -0.03965646180348
C          112.46611394901856        3.45381840613739       -0.05219301085843
C          113.44189529151689        2.52173040294761       -0.03745665792228
N          111.43692923024751        1.39021423276994       -0.01751986569934
C          112.77486636802665        1.23337792850802       -0.01565050605213
C          113.45585968952079       -0.00257750536289        0.00530481110569
C          112.81017875498269       -1.25507174673736        0.02846491968165
C          113.41391381502328       -2.53972078501974        0.05179545245033
C          112.41276735132732       -3.47302676813896        0.06889376186612
C          111.16910732490228       -2.78316337992883        0.05621415822849
N          111.46127008589662       -1.44701942993775        0.03212116064941
C          109.90122299343956       -3.35621362858934        0.06564665332800
C          108.66696687889753       -2.72403171757124        0.05286216259980
C          107.40702318446581       -3.44677509877930        0.06382973694261
C          106.43118609595490       -2.51482697420050        0.04560563547748
C          107.09808044189271       -1.22638031239900        0.02390676094697
N          108.43602647803272       -1.38308143462439        0.02877333356428
H          105.39537870084774        2.72322621346020       -0.04343921830804
H          107.35677858324756        4.55330363951624       -0.07116344880939
H          109.09460818893757        0.70330430708201       -0.00669703036999
H          109.98622554154306        4.44884862325871       -0.06783549749590
H          112.55810042616326        4.52852495612537       -0.06995226737195
H          114.51127403213356        2.66178013384357       -0.04029097984603
H          114.47762038147435       -2.71602314879499        0.05498749093347
H          112.51645539996618       -4.54622125496282        0.08842068483088
H          110.77820094904921       -0.69647190300975        0.01842290850620
H          109.88667299795321       -4.44177264808638        0.08516130314000
H          107.31518568415183       -4.52147210206957        0.08277877650059
H          105.36183535827405       -2.65504203439887        0.04640177767061
C          120.06071847099713        0.00009130677851       -0.00596375330157
C          120.70736835178658        1.25149898226871       -0.04958679727650
C          120.10374908440106        2.53570605998612       -0.09433600748929
C          121.10486401343825        3.46852149708263       -0.12839052855246
C          122.34839528874691        2.77883961845159       -0.10514899808992
N          122.05624932452261        1.44320692242126       -0.05764533999038
C          123.61641515776024        3.35099195306425       -0.12628277715929
C          124.84936703471882        2.71662135724734       -0.10378695919650
C          126.11126438582373        3.43545605167365       -0.12930600594611
C          127.08435540130240        2.50108454986142       -0.09536790792383
N          125.07618001248024        1.37566234488626       -0.05546454133843
C          126.41357300373515        1.21526941727970       -0.04928197559954
C          127.09164391282873       -0.02143673374145       -0.00400682553283
C          126.44555120925371       -1.27295323693292        0.04050881531431
C          127.04961852383327       -2.55685624863468        0.08632565601378
C          126.04870887038668       -3.49005121480816        0.11726963266511
C          124.80505906961186       -2.80068937600583        0.09131208169762
N          125.09678492432054       -1.46504018901764        0.04541153406258
C          123.53681534184815       -3.37261401257613        0.10877311524148
C          122.30409798209160       -2.73793188827842        0.08563093678968
C          121.04235534747990       -3.45710108426687        0.10873748270673
C          120.06903603612987       -2.52291108708793        0.07736703868996
C          120.73937545312982       -1.23669213640095        0.03489799532990
N          122.07681459910621       -1.39680086495869        0.04058056857344
H          119.04006292765882        2.71199755081952       -0.09961155567193
H          121.00137462965201        4.54123806623272       -0.16632323177558
H          122.73982770340595        0.69347861946745       -0.03186073211271
H          123.63235829519434        4.43597887620489       -0.16502916821241
H          126.20627668056133        4.50934932620100       -0.16789336754810
H          128.15413145252353        2.63803334734017       -0.09989147173854
H          128.11337628725758       -2.73273964383959        0.09405877391722
H          126.15263743852431       -4.56274016199096        0.15478209496313
H          124.41314046183410       -0.71545578378896        0.01803825916252
H          123.52066060469660       -4.45766163110514        0.14565254863939
H          120.94780762931735       -4.53113946383938        0.14429102732155
H          118.99932487944443       -2.66023603021108        0.08136636307882
C          133.69536443382376       -0.02693673519608       -0.00532782775951
C          134.34086037907903        1.22276614172010       -0.08902757277833
C          133.73452758940613        2.50370356408396       -0.17554110343970
C          134.73353805749696        3.43703762208670       -0.23997031027457
C          135.97831862033843        2.75091840600949       -0.19422861271098
N          135.68917921177515        1.41679701844254       -0.10308747473671
C          137.24564690646872        3.32294002504345       -0.23423477078493
C          138.47709543624904        2.68686863162711       -0.19039029284907
C          139.74114779425540        3.40054042460594       -0.23917281927821
C          140.71103576832354        2.46472927798518       -0.17305888870279
N          138.69898288828068        1.34755447673209       -0.09719126501629
C          140.03586326138904        1.18327937804572       -0.08434469507775
C          140.71089837429778       -0.05225929667722        0.00354072778072
C          140.06644140155834       -1.30201377332519        0.08902522162419
C          140.67335716293005       -2.58233770942328        0.17827788480235
C          139.67460261476023       -3.51638850582522        0.23912128253616
C          138.42969945451335       -2.83093772330536        0.18881355345523
N          138.71819305226461       -1.49689665776583        0.09873477330451
C          137.16191902910370       -3.40289580522409        0.22407297972549
C          135.93086141233661       -2.76659219291215        0.17865852057631
C          134.66701440345147       -3.48075009469589        0.22454347415332
C          133.69680639093991       -2.54502691265658        0.16123783709252
C          134.37139377217369       -1.26294838411663        0.07665820849083
N          135.70810300990067       -1.42680791214572        0.08895890279936
H          132.67047311232710        2.67744166995249       -0.18655132237710
H          134.62796346282110        4.50773806373300       -0.31280808961365
H          136.37526566337368        0.67069248272989       -0.05294991020523
H          137.26253364145737        4.40595905696629       -0.30883645208728
H          139.83957956306472        4.47220746160624       -0.31372556691579
H          141.78121490924838        2.59798423120510       -0.18135291926297
H          141.73754485510440       -2.75531688785087        0.19304186559071
H          139.78086440215336       -4.58700282832518        0.31244169251798
H          138.03204651100154       -0.75107035724751        0.04574607912211
H          137.14487528862188       -4.48603187889734        0.29703110626322
H          134.56916172293691       -4.55271610141480        0.29574131838838
H          132.62666521086723       -2.67874222157882        0.16890007232286
