306
 energy: -506.955835764107 gnorm: 0.000647460108 xtb: 6.5.1 (b24c23e)
C           48.68982348227531       -0.07815492259389       -0.00332887953067
C           49.29690020428762       -1.15600464230377        0.62816903939216
C           48.64407922291819       -2.26927562822000        1.22808418920704
C           49.60464567728865       -3.09363186785618        1.74289694382790
C           50.87542059353628       -2.50610118402221        1.48154922536645
N           50.63901616769775       -1.34569511423206        0.80059950126585
C           52.13650953859786       -3.00761861332064        1.82280454624463
C           53.35352869198304       -2.40440528143942        1.49758796085027
C           54.64810889938780       -2.91910039665117        1.90701051279789
C           55.57198422581985       -2.07460108632663        1.40387116773088
N           53.51261926407794       -1.25866045001656        0.77925282375345
C           54.84056238156518       -1.03967892368312        0.69873750947525
C           55.48097050743338        0.02861445042133        0.03881963889396
C           54.84846128901468        1.09837972599751       -0.62162006222837
C           55.49560196025794        2.16393453389765       -1.30209579402535
C           54.53043470302165        2.99418783223320       -1.80051724930011
C           53.26254059758352        2.46418826079201       -1.43245848677568
C           52.00237727393541        2.98363122815737       -1.74538567300252
C           51.97494175560639        4.25912688263505       -2.50255461622156
C           51.39170997683811        4.31687465340759       -3.76915357003608
C           51.36983758538557        5.50892350987371       -4.47728429808040
C           51.92447123415175        6.65739572798124       -3.92885611500437
C           52.50441796833580        6.60871929980339       -2.66849116038638
C           52.53312245498220        5.41723172496149       -1.95943432136086
C           50.78388611046233        2.38946718407382       -1.40053455038954
C           49.48080267071312        2.96572030775695       -1.69389969635943
C           48.56401005181824        2.10430263716076       -1.20894274709029
C           49.30568544607654        1.00893780854974       -0.60944685626660
N           50.63901422455180        1.21820545706218       -0.73678648597371
N           53.50711263444267        1.31513131274973       -0.72747667802953
C           52.16186062423516       -4.27812973027510        2.58940181730267
C           51.56933234683331       -4.35460673123111        3.85061876302408
C           51.59456505368330       -5.54209398896234        4.56655403554289
C           52.20568876331018       -6.66748636048400        4.03068316425343
C           52.79451198254210       -6.60027181725132        2.77523954032484
C           52.77555858556291       -5.41338929107467        2.05833456863810
H           47.60464373924067       -0.09427669279001       -0.01743968587967
H           47.57540492887676       -2.41176446285365        1.25097633408627
H           49.45292474128235       -4.03166061053644        2.25188104423422
H           51.36451097600229       -0.71939486534793        0.46803027381462
H           54.80605614280430       -3.79949342646171        2.50861130985829
H           56.64545585750570       -2.11940248819132        1.49504428530018
H           56.56423382573730        2.26944380770205       -1.39780232638805
H           54.67945587803334        3.88976092139516       -2.38135043857501
H           50.96989731356176        3.41785125898247       -4.20451877357561
H           50.91870530736136        5.54081588174492       -5.46285926093054
H           51.90472597059278        7.58905018513385       -4.48284415460180
H           52.93589930973119        7.50367888821701       -2.23397922779466
H           52.97437473226007        5.38466314215103       -0.96936749636095
H           49.31546860670647        3.90747773120391       -2.19205962704160
H           47.48803600139134        2.17928789406360       -1.23136414891602
H           52.78393622994930        0.71128727826425       -0.35066273854724
H           51.10381346166862       -3.47293116771254        4.27720018065820
H           51.13611752326305       -5.58809937352994        5.54821541131460
H           52.22319800934081       -7.59551708265944        4.59080086334843
H           53.27044956930911       -7.47737286291296        2.35092529462956
H           53.22467929684851       -5.36614965888244        1.07256702712870
C          119.56190269420793        0.01236832801092       -0.08001529506713
C          118.94563790760235        1.04872072279690       -0.76944219382998
C          119.58856769337885        2.07654381449464       -1.51487616952973
C          118.62093758584344        2.89809521707572       -2.02095383250699
C          117.35568116895607        2.40395251299609       -1.59291926089991
N          117.60211543700015        1.28364706767823       -0.85107177312131
C          116.09044927996771        2.93094968410018       -1.87522875257894
C          114.87941306297878        2.37303145420828       -1.45936628991138
C          113.58155904691726        2.97147659891897       -1.71570240629623
C          112.66474633962474        2.14266645359005       -1.17494166253081
N          114.72970132393655        1.21683780274652       -0.75589645822465
C          113.40392717854645        1.04576756240192       -0.58031748739057
C          112.77159638906730       -0.03471770645359        0.06790052294109
C          113.41297371714080       -1.10853037986799        0.71303669428912
C          112.77554855058808       -2.20302943062184        1.35552267795456
C          113.74786512228623       -3.01009148293735        1.87788304575044
C          115.01049245942619       -2.42875369062381        1.57507130017673
C          116.27508746020557       -2.92458895930298        1.90830477218548
C          116.31366593806074       -4.16456351891565        2.72175074426171
C          116.91653073668135       -5.32023689155346        2.22297613993444
C          116.95126173353066       -6.47794838652668        2.98550312224182
C          116.38993894273973       -6.49523711164774        4.25515173150772
C          115.78972733264709       -5.34936297256904        4.75909194277124
C          115.74813504538848       -4.19121014274301        3.99744762663557
C          117.48855687171668       -2.33986564949620        1.53093627349278
C          118.79620925328885       -2.84375818803391        1.92129838620239
C          119.70576487384670       -2.02319675878393        1.35815777871396
C          118.95509424963093       -1.01137841505330        0.63569335584337
N          117.62363349471285       -1.22847175662743        0.76930560657721
N          114.75588832676620       -1.28668221548411        0.86242795826787
C          116.05178712321671        4.17724750747485       -2.67980146347062
C          116.65396811098672        5.34427914545841       -2.20766092989248
C          116.61467067534308        6.50795571480446       -2.96112357114486
C          115.97975146632204        6.51938775441078       -4.19558214353724
C          115.38118998099030        5.36156006072397       -4.67366439480888
C          115.41412068458351        4.19736607998728       -3.92106259518468
H          120.64696233829797        0.01217103781590       -0.10677811673363
H          120.65577024262163        2.16162704709876       -1.64422116228416
H          118.76435247863401        3.76635609044792       -2.64347677040004
H          116.88218202584738        0.70894432442956       -0.42609101436412
H          113.41698826857144        3.90549105668167       -2.22804328160266
H          111.59153548947249        2.24540973995265       -1.15850806486829
H          111.70819856953459       -2.34729427448123        1.40305845506445
H          113.60725994883951       -3.93265720395300        2.41710646575594
H          117.34387259904783       -5.31242628570058        1.22646832577376
H          117.41807089296670       -7.37139039494223        2.58581446964119
H          116.42028866701855       -7.40034237525265        4.85108668658093
H          115.35278364498944       -5.35638835143047        5.75154400173843
H          115.29126317435062       -3.29326156551200        4.39864047914150
H          118.96942251751858       -3.70187996404114        2.55059384742902
H          120.78217263825458       -2.06682820977592        1.41553186556961
H          115.47360864005081       -0.67020729836230        0.49577718660228
H          117.13782791740813        5.34164884954096       -1.23714875840962
H          117.08066045195808        7.41050071120898       -2.58137929364467
H          115.95114789751311        7.42942747716241       -4.78404130550938
H          114.88653852774746        5.36441513071361       -5.63864466555611
H          114.95703400018120        3.29067674898325       -4.30144379062386
C           60.68438908653937        0.05899739337422       -0.00512703381468
C           59.45629620856374        0.05325342279415        0.00638412584160
C           58.11132378183220        0.04956382160837        0.02099298585143
C           56.88769556867037        0.04174715554209        0.03440872660444
C           62.02924563824290        0.06169204847823       -0.01597470274224
C           63.25308949655423        0.05844280492481       -0.02665647893171
C           76.72287054013250        0.00556246234667       -0.03488483519816
C           75.49386440804670        0.00636644012454       -0.02439802311748
C           74.15053016410843        0.00744068985241       -0.01732990225446
C           72.92592282078938        0.01200462304216       -0.00935218440001
C           78.06614890354052        0.00954494811280       -0.04575661587979
C           79.29077601671629        0.00939403482341       -0.05627711052074
C           92.75989317749664       -0.01759215198356        0.01440757548295
C           91.53085362291178       -0.01098453197453        0.01080436657529
C           90.18758884895310       -0.00385383390485        0.00261238479740
C           88.96298801561163        0.00613330334717       -0.00697414135203
C           94.10321234305560       -0.02318463034441        0.01268046121508
C           95.32783289226866       -0.03074020873146        0.00564680916969
C          108.79659131596144       -0.06534190696138        0.06259515577919
C          107.56845743203672       -0.06378925942954        0.04477253413490
C          106.22385554688030       -0.05891447216319        0.02700756034721
C          105.00008358784348       -0.04862449481378        0.00662919130891
C          110.14144905636725       -0.06272995060677        0.07112432657995
C          111.36520473416955       -0.05259897111897        0.07568709964868
C           64.65886869463954        0.05525249156745       -0.03078440607700
C           65.28862858043290        1.21371427805184        0.46278773933063
C           64.64314617176575        2.36545937824145        0.98260872346478
C           65.61072982938622        3.26140326849233        1.34707255461302
C           66.87602576933557        2.68474175494098        1.05183810753184
N           66.63040642034515        1.44428484311233        0.52657154154593
C           68.13696242470516        3.25309378581989        1.26901673466962
C           69.36077659545643        2.63676680131812        1.00540401231759
C           70.64761765366508        3.28310728564308        1.19113865007223
C           71.58431016351666        2.38000424659015        0.83457581972607
N           69.53700483046268        1.37314610389064        0.52859391172489
C           70.86812435255105        1.18813473998476        0.42497111426386
C           71.52194295845550        0.01642177044182       -0.00824043291963
C           70.89097839468516       -1.16350218586690       -0.44877367349002
C           71.53551148422767       -2.36013504550749       -0.85567249788773
C           70.56779524011677       -3.25638922932753       -1.21935039330689
C           69.30348640752187       -2.62815344478041       -1.05352852847676
C           68.04306106743346       -3.18129985425394       -1.30876695246989
C           68.02622965857813       -4.56031115082132       -1.85839747406718
C           68.61211322971540       -4.83728789755293       -3.09427379494147
C           68.59239870211766       -6.12602600362372       -3.60626724172736
C           67.99386258083123       -7.15308156653140       -2.88931007085363
C           67.41167472850371       -6.88594514477096       -1.65762502312013
C           67.42466171151074       -5.59769162963879       -1.14465770550774
C           66.81930467352036       -2.54632325272190       -1.09022424004413
C           65.53326196864620       -3.13395254828884       -1.42105753084105
C           64.59659189382010       -2.23262500740531       -1.06020350041813
C           65.31193436678596       -1.09323340879740       -0.52055444935666
N           66.64334957272895       -1.30467035176936       -0.56036023663345
N           69.54985491527800       -1.36832621948701       -0.57607300286581
C           68.15313905550015        4.62822196791461        1.82890960438927
C           67.59252155030515        5.68961189393900        1.11743370584797
C           67.61050071019795        6.97283986747510        1.64322671419650
C           68.18152966576677        7.21021330577747        2.88607116064086
C           68.73846257922328        6.15868633220464        3.60120388373004
C           68.72770163623640        4.87519465943702        3.07634762715334
H           63.57493925708335        2.48258063515587        1.06853937395843
H           65.46337297494520        4.23284352948630        1.78992316335484
H           67.34933435209835        0.78978064795523        0.23671639573874
H           70.79208922942976        4.29462965394209        1.53446788210137
H           72.65724807737011        2.48703973577637        0.83325559776858
H           72.60309286055816       -2.50980633321042       -0.86049887058094
H           70.71451249489260       -4.26705910122998       -1.56365113106645
H           69.06818840288433       -4.03390733368882       -3.66219324881142
H           69.04553245107952       -6.32858774545005       -4.57038636885603
H           67.98086647086002       -8.16028952598412       -3.29007098034391
H           66.94532454035442       -7.68520009245575       -1.09234778656270
H           66.98007066828200       -5.39269841064728       -0.17719544544172
H           65.38917161432636       -4.09886638200707       -1.87938530705358
H           63.52427038507916       -2.30336164370103       -1.14831147800557
H           68.83150302541972       -0.68984221892170       -0.34611813930013
H           67.15738764998468        5.50846109532935        0.14082093063067
H           67.17737010432170        7.79130246876404        1.07896837315886
H           68.19269745051459        8.21346162331160        3.29670793479447
H           69.18306209972742        6.33832015090007        4.57376550493779
H           69.15275579094674        4.05275543722165        3.64077130539411
C           80.69462402996049        0.01484054773794       -0.06137623018744
C           81.31856737731067        1.17014452518285        0.44923037151159
C           80.66692491347425        2.31141540843834        0.98349667523075
C           81.62955957380622        3.21143508009623        1.35179559665556
C           82.89755594965142        2.64734392495845        1.04509931477669
N           82.65864926794714        1.40956054304059        0.50995887779179
C           84.15516158144861        3.22440961884124        1.25951106109455
C           85.38267094295506        2.61792266659468        0.99020034320374
C           86.66565278585942        3.27166363968795        1.17635929887113
C           87.60778379051555        2.37342343300892        0.82159845392535
N           85.56637980750263        1.35589187592615        0.51184239516145
C           86.89866884184092        1.17795382074412        0.41059652819498
C           87.55920865682944        0.00937028761571       -0.02089458114675
C           86.93478016587197       -1.16939457206052       -0.47415533899590
C           87.58564287862929       -2.36037942543116       -0.88701864487635
C           86.62309836951238       -3.25560727411327       -1.26708403621188
C           85.35608166823883       -2.63242770531253       -1.10470684108507
C           84.09887352381369       -3.18703388775809       -1.37393019903977
C           84.09120358958107       -4.56056975198036       -1.93744144598581
C           84.68431832575970       -4.82241082351629       -3.17314676746986
C           84.67446952831500       -6.10635730341447       -3.69732897097538
C           84.07900397708381       -7.14365385192207       -2.99263960773449
C           83.48964130520172       -6.89153018921623       -1.76120971041361
C           83.49244975800114       -5.60803489570336       -1.23624047122679
C           82.87179054199714       -2.55969765884881       -1.15504568719674
C           81.58989379241306       -3.14855785244629       -1.49864484546196
C           80.64766082959393       -2.25654300764060       -1.12878217002088
C           81.35578392256723       -1.12165526829888       -0.57070819824340
N           82.68765813373902       -1.32544748596739       -0.60911468574286
N           85.59522761490926       -1.37649048355032       -0.61377344524572
C           84.16265984600373        4.59758356159606        1.82410715310027
C           83.58726892610150        5.65589962625056        1.11973803771761
C           83.59676505670870        6.93764255772998        1.64931451564913
C           84.17396940477506        7.17661155217550        2.88902534975964
C           84.74557647551242        6.12818828659849        3.59711459061896
C           84.74330427630963        4.84620375881522        3.06842799142118
H           79.59830351110318        2.41998636251718        1.07514651036131
H           81.47683215008493        4.17746664141404        1.80452728694909
H           83.38113199986884        0.76343465929935        0.21032087409038
H           86.80422637380772        4.28423009683180        1.51904128703471
H           88.68011745272921        2.48641622022981        0.82102728535169
H           88.65362644391948       -2.50716013551195       -0.88539433721648
H           86.77525964213238       -4.26237281732763       -1.62033186208679
H           85.13850631254049       -4.01108536079264       -3.73117749771806
H           85.13318194236717       -6.29721353537618       -4.66118917427654
H           84.07413057330670       -8.14718846956782       -3.40271062560420
H           83.02578910418561       -7.69885911362439       -1.20542989458605
H           83.04227428930103       -5.41472931703900       -0.26895228601042
H           81.45212902704426       -4.10790072270688       -1.97043837979062
H           79.57598338861857       -2.33104784774589       -1.22161840105985
H           84.87318510840869       -0.70243863518635       -0.38235690591074
H           83.14723942170671        5.47360126702936        0.14553017340325
H           83.15208564572852        7.75367370762854        1.09053126407050
H           84.17845116801324        8.17867153404436        3.30270155702987
H           85.19502555225839        6.30905765125265        4.56722558103662
H           85.17966803199992        4.02611649407691        3.62763849267758
C           96.73172731213765       -0.02971727867243       -0.00213830224576
C           97.36049770168287        1.12802543505394        0.49665813282996
C           96.71409607550144        2.27188532362018        1.03207355801669
C           97.67985075445421        3.17663132765212        1.37965826138103
C           98.94471728074389        2.61340158631060        1.05796181417262
N           98.70081802976580        1.37020214609044        0.53761264373900
C          100.20360492258989        3.19714864607443        1.24348574964915
C          101.42847271467436        2.58931754862754        0.96274185416048
C          102.71290807340282        3.24876890554168        1.11726255011940
C          103.65168930892187        2.34388113220955        0.77085181213479
N          101.60726456609150        1.31887040063430        0.50721774606166
C          102.93911261868253        1.13895758108209        0.39487758609582
C          103.59469357494639       -0.04068313684536       -0.01059781152644
C          102.96666537184404       -1.22545503880319       -0.44001801646644
C          103.61316347774168       -2.42294608541141       -0.84152599715623
C          102.64744917588544       -3.31752310046676       -1.21450893498689
C          101.38253410190990       -2.68848700715215       -1.05688913209071
C          100.12359571642318       -3.24151662146761       -1.32110262558246
C          100.11288476905300       -4.61469753153294       -1.88558980769525
C          100.69905057507636       -4.87294316011054       -3.12539336229865
C          100.68628568995801       -6.15525924755139       -3.65334739412358
C          100.09515220056642       -7.19465063163013       -2.94810120678147
C           99.51330374854204       -6.94621638283053       -1.71238149286396
C           99.51873749677182       -5.66419393953337       -1.18373134834011
C           98.89850333905075       -2.61198769816050       -1.09806930170136
C           97.61364331136640       -3.20130378308299       -1.42981196971249
C           96.67486354041168       -2.30704507021858       -1.05669197752303
C           97.38802912518921       -1.16995510213427       -0.50934784373196
N           98.71931187441042       -1.37516257912151       -0.55632411990044
N          101.62600878737888       -1.42968054122779       -0.57643663083462
C          100.21699264097209        4.57797202715662        1.78828104820021
C           99.61741517525961        5.62301269105353        1.08410991866632
C           99.63301603326146        6.91225678719479        1.59492060041926
C          100.24102267741537        7.17238019475260        2.81549467117766
C          100.83690213927748        6.13742249880506        3.52340575089799
C          100.82805835819482        4.84790408184412        3.01356025700266
H           95.64669258042514        2.37861042544118        1.13886178542876
H           97.53147089675569        4.14540138007607        1.82797643202553
H           99.42018821816225        0.72337547430256        0.23208796100332
H          102.85463363386931        4.26896219014960        1.43509365244044
H          104.72375290127019        2.45809512050570        0.75402644044506
H          104.68069288371471       -2.57311375901815       -0.83929216281377
H          102.79551410564767       -4.32763660144005       -1.55988427605959
H          101.15023020429635       -4.05988700552562       -3.68336730891895
H          101.13919268719170       -6.34317976279091       -4.62052446671914
H          100.08789390446118       -8.19696861155463       -3.36108863093762
H           99.05322179189324       -7.75536014269649       -1.15611788092265
H           99.07429838467091       -5.47381631729292       -0.21323642571506
H           97.47164532338645       -4.16297713309967       -1.89557912618234
H           95.60242341149187       -2.38151196647795       -1.14044261748437
H          100.90665703654213       -0.75044871132345       -0.35194731427815
H           99.15375358937843        5.42448302860387        0.12413261147094
H           99.16908900843812        7.71761965672253        1.03631369292328
H          100.25064752058687        8.18037257765741        3.21437389593322
H          101.31061446562568        6.33479168838411        4.47863612120961
H          101.28313050686413        4.03838545576225        3.57325946022653
