252
 energy: -482.943454769790 gnorm: 0.000790219334 xtb: 6.5.1 (b24c23e)
Ni          51.39909065089481        0.09901905009497       -0.62207868689316
C           48.03828646729989       -0.10767411134150       -0.20751002518431
C           48.60324738899860        1.14742940795405       -0.29935651420846
C           47.84573645815265        2.36145890583010       -0.27810276979003
C           48.73827108488308        3.37716749493785       -0.33458885675491
C           50.04280061398564        2.78199111747935       -0.36258820263685
N           49.94694561952460        1.41298333037913       -0.38369217519617
C           51.22816620385129        3.50232676639731       -0.29838534688531
C           51.16100751958521        4.97948973905787       -0.18589041916183
C           50.53919810632517        5.58085268461622        0.90448819802170
C           50.47872848746797        6.97018855091316        1.00607382702862
C           49.80334229776074        7.55157257319491        2.19371321253436
O           49.80053561806469        8.89232524850243        2.20578697419686
O           49.29683361099285        6.90279249271166        3.07286244068322
C           51.04131955697506        7.76928402725698        0.01097462021239
C           51.66157392249141        7.17257423908927       -1.07551669472923
C           51.72403393869040        5.78981043043353       -1.17466547443808
C           52.47756697322654        2.89541941212140       -0.30851108861852
C           53.70707320082014        3.60578577814144       -0.12827059663313
C           54.70456948735204        2.69759375416381       -0.25129875414401
N           52.72085742481114        1.55603706624103       -0.50847294269598
C           54.08463765981217        1.43672746416675       -0.50737849759739
C           54.80162187470303        0.28050439669418       -0.82510486290241
C           54.17685200043984       -0.93614423356448       -1.11242482481865
C           54.88612833688146       -2.10383736002356       -1.52843301118940
C           53.97155897670972       -3.09538697111125       -1.64867231054071
C           52.70679657313422       -2.53639610769838       -1.27835065355373
N           52.83939125995218       -1.19674965533699       -0.98909844145528
C           51.54005711913690       -3.27872596576064       -1.15850086705123
C           51.59269050432622       -4.73878261987632       -1.41539807891171
C           52.38692446868169       -5.57199586950748       -0.62482802666363
C           52.43299043330036       -6.93848484642079       -0.86390958867547
C           51.69035378831843       -7.48859600828559       -1.89518656347629
C           50.89299985299444       -6.66581781993420       -2.69226061150407
C           50.11366739754032       -7.29313753308489       -3.78886087364516
O           49.38091576087668       -6.41954652302271       -4.49496146762409
O           50.11944926762713       -8.47136203560810       -4.03873175413704
C           50.84335824884118       -5.29450851389698       -2.44984080531060
C           50.32632071997161       -2.71542391677173       -0.78592888522627
C           49.13044098686863       -3.47185623701731       -0.55469069196353
C           48.15324773942818       -2.58116729167243       -0.26549699006388
C           48.75171612811005       -1.28233428395689       -0.32351622282293
N           50.09141375050153       -1.37566683171177       -0.60848252497741
H           46.96658475420197       -0.17472995477139       -0.06133420772396
H           46.76942654833304        2.40935334976848       -0.23318633208703
H           48.54347994400899        4.43705643598033       -0.35287547022414
H           50.10888011814740        4.97579675822059        1.69501027171806
H           49.34354144851256        9.19201677789084        3.00848766260338
H           50.99155869062704        8.84844214836385        0.09070764182198
H           52.09934679453304        7.78765209474980       -1.85359033633104
H           52.20133714804511        5.32909824125770       -2.03234565528060
H           53.78641897468392        4.66099271265845        0.07623610188199
H           55.76858625115251        2.85623942473110       -0.18669972213150
H           55.94823507201696       -2.14678870530556       -1.70423004928354
H           54.13048035337785       -4.11566015671893       -1.95702880275891
H           52.95926328812705       -5.14474289419906        0.19087186768090
H           53.05098216040837       -7.57380595866868       -0.23985658956319
H           51.71595365087057       -8.55358892751562       -2.09645658743429
H           48.90490149983053       -6.90594820902785       -5.18753224988221
H           50.23162805737856       -4.65570607838720       -3.07584536472814
H           49.06350192909543       -4.54662114796446       -0.60245122405079
H           47.11540284910048       -2.76604834010245       -0.03861436818940
Ni          83.91557106166870        0.22799307464072       -0.57604699058413
C           87.29632046884097        0.07849600970766       -0.71548585687397
C           86.58104774934665       -1.06109492971741       -1.02035329635959
C           87.18294770668071       -2.29741001286043       -1.41802923134184
C           86.18910113225540       -3.21501855371587       -1.46833324287002
C           84.97990377524910       -2.53889764946701       -1.09785947034916
N           85.22425956757525       -1.20817778010019       -0.87093605370233
C           83.75029007564453       -3.16589431348067       -0.93691939146079
C           83.67865416732037       -4.63814703599370       -1.08842740629205
C           84.43160533541590       -5.47291108323411       -0.26737295314386
C           84.37010084523298       -6.85750668155946       -0.41953166920230
C           85.19955287696447       -7.69389311700685        0.48444741362333
O           85.07725523907342       -9.00991857803168        0.25874421715735
O           85.92262897923987       -7.25619937497645        1.34232617520863
C           83.55144918756169       -7.41784537956844       -1.39994236566022
C           82.80081866656779       -6.58896541445004       -2.21891750805171
C           82.86164143162139       -5.21113980088960       -2.06643578660973
C           82.58272932604139       -2.46284263138293       -0.66664205617072
C           81.30495364481226       -3.07538172537414       -0.46536508097837
C           80.39622469887112       -2.07161449508087       -0.40464212510031
N           82.46279482461611       -1.09163881199224       -0.65776735617135
C           81.12019900616681       -0.84998618748844       -0.55122276311129
C           80.51216359704345        0.40563033919660       -0.65019111711918
C           81.25013687322277        1.59238479125295       -0.65313523604639
C           80.66016989131074        2.89068171459078       -0.72468218227215
C           81.65565240434728        3.78564002288420       -0.51428596200008
C           82.85642728070087        3.03010803000499       -0.32634935704294
N           82.60247371406892        1.68484840281326       -0.45879056218075
C           84.08760779029949        3.59413175340680       -0.01477932887750
C           84.15064810500427        5.05075656301231        0.25395860125724
C           83.43355609541227        5.60207726773943        1.31818323102036
C           83.49254830681447        6.96376037751314        1.58011949305792
C           84.26186166428096        7.79206269287291        0.78015966186662
C           84.97687815488021        7.25403907320785       -0.29092339834929
C           85.78239229324267        8.17635288038845       -1.13043746166379
O           86.42324062110617        7.56494248371397       -2.13723261209752
O           85.86888711515159        9.36306393945030       -0.94432915585456
C           84.92210661225978        5.88619700888782       -0.55087695555230
C           85.26074034163940        2.85204279217190        0.02709137150231
C           86.55202052170205        3.39861056843852        0.32794480521062
C           87.45576922159343        2.41685527861090        0.09976250419552
C           86.71517453123444        1.26396581457353       -0.31340754604653
N           85.36858682618156        1.52730032757556       -0.31615167918413
H           88.37752802569995        0.03335981691408       -0.77276006617727
H           88.23406634550142       -2.42811447713509       -1.62000129893497
H           86.25541094357307       -4.25739444057339       -1.73449930982261
H           85.06369139234684       -5.05593139489169        0.50903515132373
H           85.64793329800038       -9.48442944564821        0.88493025702557
H           83.50683025423314       -8.49366566707502       -1.51828856495011
H           82.16518352958695       -7.01734645922139       -2.98564624970813
H           82.28408983398290       -4.56841061991120       -2.72147178305685
H           81.13415532786070       -4.13594144918970       -0.37793979549237
H           79.33057909267002       -2.13969240003934       -0.25968709015874
H           79.61524351729872        3.08027458579135       -0.90671841336409
H           81.59445262499214        4.86159178761653       -0.49838503862775
H           82.83850554704149        4.95309904712061        1.95095801453410
H           82.93577063098974        7.37666863090205        2.41353671045156
H           84.31878833041984        8.85790398654711        0.97019942281768
H           86.92130294071659        8.23308228025330       -2.63569970504169
H           85.46762690128008        5.47314612697089       -1.39107509735651
H           86.73114285064722        4.40649962301641        0.66546751894935
H           88.52876264715565        2.44945752194113        0.20184719757773
C           56.20803252017605        0.34873131255239       -0.88939954795034
C           57.42165465529092        0.40475336279485       -0.94959598191375
C           67.04452872887073        0.59074027705553       -1.12888350086998
C           68.26061184204831        0.60404095560455       -1.12821968247957
C           77.89444738487573        0.51197817669461       -0.82495858210475
C           79.10680826332512        0.47092597606792       -0.73204719770716
Ni          62.23136739329190        0.54691335221043       -1.14684234935802
C           58.82750542020374        0.45810227259886       -1.01999384971178
C           59.50329488805623       -0.52003723405259       -1.75648474650968
C           58.85155104178538       -1.52393083039165       -2.53439234903692
C           59.81667841070254       -2.37053603636231       -2.96963355959921
C           61.05631150600284       -1.88819504068566       -2.44196988030713
N           60.85781330608284       -0.71354365686980       -1.75305915744001
C           62.26173822045317       -2.57642682798033       -2.51391869647555
C           62.27264492153542       -3.92970325830554       -3.11505167696417
C           61.45595252149025       -4.93547526727131       -2.60494536188432
C           61.46287684712053       -6.20881284384904       -3.17228801765897
C           60.56503153764389       -7.23553220665434       -2.58532049018179
O           60.66487574261900       -8.43501820494969       -3.17547345680094
O           59.80960873266815       -7.03369776282575       -1.66915349356601
C           62.29130494668741       -6.48499970617539       -4.25987719974405
C           63.10564971453346       -5.48577495843449       -4.76960675156436
C           63.09944765857535       -4.21885386747269       -4.20365488555473
C           63.45247424035710       -2.05051963437813       -2.02754882613145
C           64.69467478098061       -2.76020799487152       -1.98731566254070
C           65.64000571706934       -1.87230959416124       -1.59245111074813
N           63.62843298109927       -0.75329780095376       -1.60433879456802
C           64.97372791278137       -0.62544268583010       -1.38989141446442
C           65.63678708339025        0.57903559268527       -1.13881192647292
C           64.95103648952971        1.77819637376155       -0.92296422131408
C           65.59209725058206        3.04572185233943       -0.77650184871550
C           64.62331121169142        3.93898642828991       -0.45790509502847
C           63.39424694917352        3.20837775835761       -0.39066249958987
N           63.60099171713967        1.89244925736919       -0.73811356600141
C           62.19483655319632        3.72867440521813        0.07878787509184
C           62.16907990256895        5.12006638932443        0.58603945921201
C           61.30738180404851        6.06182000516398        0.01842233507720
C           61.28235550997543        7.36884489200088        0.48431357005342
C           62.11397303457336        7.75177706245843        1.52337145256099
C           62.97690686021701        6.81933834111296        2.10124053568397
C           63.85198207857093        7.26873824326840        3.21355297180472
O           64.65133054117297        6.30401446837461        3.69075870686893
O           63.86360168846912        8.38796466730279        3.65778276297325
C           63.00338282197460        5.50756698755238        1.63280685362369
C           61.01776518471666        2.98909604755466        0.10469244844601
C           59.79341323081564        3.44009807918093        0.69178089458587
C           58.85277732631147        2.50862550175473        0.39854436676855
C           59.50212394115064        1.49521449903122       -0.36926927471986
N           60.83813023525791        1.76541646887050       -0.49659151614334
H           57.79141560803813       -1.56111321679830       -2.72391071541363
H           59.70655181658589       -3.24273574516232       -3.59296158759096
H           60.81716360937260       -4.74393938292234       -1.74967119234383
H           60.05157326415884       -9.04688662067281       -2.73678695432062
H           62.29370150989038       -7.47419171779058       -4.70132426622198
H           63.74952243626968       -5.69260171848000       -5.61695131979419
H           63.72806685674554       -3.43823053378840       -4.61734262347234
H           64.81781071716321       -3.80456266681962       -2.22348511045394
H           66.69605572353198       -2.03436882973365       -1.44934188863682
H           66.64787357707810        3.21827153025901       -0.90948403003012
H           64.72380102850801        4.99780080795203       -0.28360898174135
H           60.66557151051678        5.76730598787873       -0.80442500343388
H           60.61159185941830        8.08958546058052        0.03069955282460
H           62.10760569250981        8.76863420388539        1.89930837219330
H           65.18588354258381        6.67426940554776        4.41196035133463
H           63.66229265928412        4.78184596853497        2.09463749158805
H           59.67936606233592        4.34770507042923        1.26181700361044
H           57.80952681020285        2.49932680402309        0.66901280194783
Ni          73.08089766887052        0.62748633592026       -1.12805045203222
C           69.66861139630355        0.61778022309190       -1.13717085436239
C           70.34526627765997       -0.38732895906741       -1.83359649037958
C           69.68775328257053       -1.38476340053434       -2.61578302230085
C           70.65025780212441       -2.22802492375435       -3.06178591625617
C           71.89190250534986       -1.75385427209121       -2.53065316829986
N           71.69764112379548       -0.59073549918898       -1.82054833890165
C           73.09678157835164       -2.43561800942393       -2.63691813695867
C           73.11238323308899       -3.75465573238516       -3.31254139882269
C           72.33299792327509       -4.80439001154782       -2.83467083784657
C           72.35169031491455       -6.04535425388481       -3.46992287862487
C           71.49696937871329       -7.12400436660317       -2.91254851376578
O           71.60884969814580       -8.28847956540058       -3.56755780138107
O           70.76563441507832       -6.99015865105875       -1.96512127928603
C           73.15314091710952       -6.24338628113294       -4.59410703058312
C           73.92922360378104       -5.19930844389897       -5.07261978543579
C           73.91246796257575       -3.96521680524689       -4.43829710855238
C           74.28670771897687       -1.94544884164171       -2.11310426125346
C           75.51712026099624       -2.67543738351167       -2.10571695294639
C           76.46230733834332       -1.84198825271991       -1.60752278833075
N           74.46990349565041       -0.68931518245932       -1.58305246189286
C           75.80909530816618       -0.60752603375545       -1.31076056241560
C           76.48993902985285        0.55275800099512       -0.93037678125150
C           75.82641274340226        1.75794838556936       -0.68055657923871
C           76.49878387680793        2.98452717425898       -0.39590186501691
C           75.54150449175170        3.89923186490390       -0.10835102414908
C           74.28496395966440        3.21969687974081       -0.19239130516390
N           74.47017033088099        1.91630510108596       -0.59545496540300
C           73.07199890432454        3.77872777678983        0.18801709879741
C           73.06425723041338        5.15340892324777        0.74258766784892
C           72.33030721385929        6.16385273858054        0.11731264902520
C           72.32473535475195        7.45365930150449        0.62989736819682
C           73.04735292616118        7.74981006559319        1.77358514290894
C           73.78121108069475        6.74753097581310        2.40983109838723
C           74.54220432859294        7.10398957105570        3.63401046139648
O           75.22334692817297        6.07610416784759        4.16065614720153
O           74.56275685054904        8.20362466185921        4.12438848716239
C           73.78890860567785        5.45324321785966        1.89425902047458
C           71.86687944619408        3.09431176580248        0.09427350718922
C           70.61999763088109        3.59594584402839        0.58547961471430
C           69.66999604900165        2.69694083407289        0.23020009491340
C           70.33765979435432        1.65287756592285       -0.47926040126617
N           71.68715636387333        1.87667110487616       -0.51987749250979
H           68.62615722886289       -1.41928020369931       -2.79953784052340
H           70.53770885792046       -3.09444764225299       -3.69267013044423
H           71.71527549564206       -4.67352614637991       -1.95291214808483
H           71.02470227861099       -8.93854843931638       -3.14437002458203
H           73.16496796004043       -7.20760859648911       -5.08761421937831
H           74.55211213894464       -5.34539792136176       -5.94785126022525
H           74.51341575020292       -3.14956091431848       -4.82460597105648
H           75.63263755053019       -3.69568080940709       -2.43331274269831
H           77.51297495892547       -2.03086505629129       -1.46152422555079
H           77.56767422437754        3.11735403045795       -0.41861808411941
H           75.66699215582553        4.93995323135078        0.14158822385911
H           71.77384844280817        5.93633174699397       -0.78504594085327
H           71.75423149999659        8.22888255660424        0.13128177604451
H           73.05404512276971        8.75195220376197        2.18713180950255
H           75.68809364914762        6.38828413646233        4.95405155278260
H           74.34720190379247        4.67352827394764        2.39870935495802
H           70.49805187123185        4.51276575675442        1.13879876694655
H           68.60964825734362        2.72789831039572        0.42162430596592
