128
 energy: -223.090872001635 gnorm: 0.000599206359 xtb: 6.5.1 (b24c23e)
C           11.58641253072036       -0.08195214419115       -0.14408033292628
C           12.19874726823603       -1.29566676601860       -0.42820894205282
C           11.55149887565293       -2.52128534738473       -0.75131498175535
C           12.51614828841447       -3.47190990756577       -0.93208606565085
C           13.78385841927716       -2.85854916594078       -0.71871286412920
N           13.54207406286855       -1.54631628777757       -0.42865157626813
C           15.04841726990345       -3.45142402004755       -0.81183714689769
C           15.08090528829360       -4.90421426857094       -1.10161640622133
C           15.70701097971592       -5.38487584065506       -2.25580785946557
C           15.73748172959794       -6.74048473728577       -2.51995356662293
C           15.14781947385293       -7.64802012224691       -1.63358363538142
C           15.19919235879133       -9.09028476035546       -1.93432061822570
O           15.71790454673094       -9.55071073328101       -2.91895624258905
C           14.52218168325730       -7.16924083932566       -0.48000084542756
C           14.48611730033216       -5.81099532240857       -0.21961613792640
C           16.26431165189590       -2.78237574271100       -0.64953072595193
C           17.56166179713599       -3.43228036419308       -0.70569322943967
C           18.48172527113391       -2.46594690620475       -0.50792764833752
N           16.41764527282013       -1.45344400642008       -0.39780142570677
C           17.74516088895742       -1.23157337603627       -0.31614576927413
C           18.38139238200396        0.00318105340889       -0.07476808147689
C           17.74252657711684        1.23012859883316        0.18683431434593
C           18.38307831232022        2.47420980194635        0.42803794446612
C           17.41352102186283        3.40920969754282        0.66315828468045
C           16.14972001973955        2.76147473269072        0.57822786521456
N           16.40023556184671        1.44886964444473        0.27878034102401
C           14.88562896084000        3.34235309453979        0.73125105576111
C           14.85367300918448        4.77703267825114        1.09735940678025
C           15.44320839977790        5.21445288923558        2.28789848209594
C           15.41001843705049        6.55132167112150        2.63376693406639
C           14.79252769237141        7.48439304229988        1.79413605144986
C           14.77434761547264        8.90598125370887        2.18375356093406
O           15.26458424870528        9.32749957735548        3.19996958609734
C           14.20621729166103        7.04965108543868        0.60294288994779
C           14.23446777943089        5.70964984788481        0.26013896120032
C           13.66861767703952        2.67115858689596        0.56846627978175
C           12.36284074600190        3.27989650503120        0.77254451564300
C           11.45038397403158        2.32105803317064        0.51733860406025
C           12.19727388760367        1.12349579220933        0.17458392144158
N           13.52972776792739        1.36969910506883        0.22318019325400
H           10.50132351977379       -0.08852018519114       -0.16495003353094
H           10.48368832474915       -2.64528939579302       -0.83547259438691
H           12.36918111497887       -4.50562363409933       -1.19999705996724
H           14.26393934493451       -0.85827759916105       -0.24240805751020
H           16.15472560957462       -4.68324471920056       -2.95042390104260
H           16.21708319113417       -7.12098600555530       -3.41538403341431
H           14.71170803817967       -9.73272548263028       -1.17018729958512
H           14.06529459658652       -7.86639010034020        0.21491314994699
H           14.01220768367326       -5.44385052965650        0.68388715575763
H           17.72497373699696       -4.48615150583351       -0.86185586595209
H           19.55571071378067       -2.55567558085642       -0.47847037821095
H           19.45036467956076        2.62541686497705        0.41694269438081
H           17.55760467353820        4.45782321424382        0.86595009969750
H           15.68094671982196        0.74640370693435        0.14181330558090
H           15.91021024187830        4.49218756630915        2.94803461481606
H           15.85895276907840        6.89675767043274        3.55884742025660
H           14.26168163972136        9.57152008683967        1.45688475056794
H           13.72890939346475        7.76739059373215       -0.05633843643307
H           13.79105320375419        5.37798265675721       -0.67193398267944
H           12.19209366945322        4.29844376024064        1.08181812284248
H           10.37439240091628        2.38380388449584        0.56047485574396
C           34.35278018674217        0.14764791297599       -0.07446136863292
C           33.74041815713876        1.31514670133126        0.36228396040015
C           34.38764376772501        2.51419811746488        0.77318191170423
C           33.42298467266338        3.40540918696921        1.15013352946016
C           32.15529128870298        2.77663885588380        0.98757438487518
N           32.39709059287061        1.52389227940860        0.50104168694724
C           30.89072403972656        3.32151501497188        1.23910528705986
C           30.85817323795768        4.69104030578964        1.80385543922431
C           30.23171951388514        5.73106464753146        1.11023186789346
C           30.20117631570495        7.00554630647740        1.64233130780734
C           30.79127305454995        7.26920376641989        2.88299368771046
C           30.74059886618579        8.63629788875738        3.43228531809103
O           30.22089163232622        9.56525643987080        2.86884106398214
C           31.41713943019551        6.23105491453727        3.57721725198969
C           31.45321210884766        4.95644499964576        3.04055812658608
C           29.67484487636852        2.67475834870374        1.00306668233210
C           28.37749414871351        3.24653546605715        1.31708833587984
C           27.45743908391599        2.33287042964674        0.94541400827361
N           29.52152363310526        1.42949584652955        0.47511567672553
C           28.19400969360036        1.19958534317979        0.41994772053608
C           27.55781610183664        0.03839896687175       -0.06438794670134
C           28.19671915758340       -1.12756457229419       -0.52732368915863
C           27.55617882776325       -2.29649492464656       -1.01672234730311
C           28.52573665265021       -3.20492697175610       -1.33962499010835
C           29.78952448897010       -2.61889574407451       -1.05090305401339
N           29.53900706039708       -1.36060843097278       -0.57203942883640
C           31.05362550555859       -3.18714968837116       -1.24561287347554
C           31.08562000058597       -4.58393810481008       -1.73684684222348
C           30.49586058602587       -5.60831915120981       -0.98911780324708
C           30.52904451437455       -6.91247516986123       -1.44301587211973
C           31.14691916547331       -7.22305533752041       -2.65902086652557
C           31.16552529155949       -8.62202898947661       -3.12329251290777
O           30.67410283359964       -9.53630744386062       -2.51230992474001
C           31.73343907428655       -6.20053099300391       -3.40879358305262
C           31.70508915196671       -4.89545581765379       -2.95066430372891
C           32.27062016764225       -2.53840632182756       -1.00860263913432
C           33.57640384449558       -3.15816195019131       -1.17624599951126
C           34.48884950057553       -2.21878555345046       -0.85672644255282
C           33.74194623677267       -1.03216054798993       -0.47786394708739
N           32.40949716102622       -1.26395214573599       -0.57410666735021
H           35.43787003905195        0.16471314030214       -0.08818085886074
H           35.45544868343247        2.66409802897351        0.77184401419682
H           33.56993295643416        4.41414455617831        1.50055921369854
H           31.67523016242080        0.84808355192988        0.27438533386536
H           29.78381443063234        5.53243976105819        0.14319753630712
H           29.72140773385195        7.81874666703932        1.10836903188311
H           31.22647156223802        8.74665914913951        4.42526582149492
H           31.87426023669556        6.42579430339709        4.54199057992199
H           31.92736900758949        4.14989585842344        3.58860609700792
H           28.21417739489680        4.20989603690172        1.77202459901205
H           26.38345704782514        2.39113531231208        1.01976683539286
H           26.48889564609677       -2.41615401020799       -1.10989720686843
H           28.38165966492395       -4.18994385387968       -1.75249740730280
H           30.25829546033749       -0.70017833398546       -0.29627188711642
H           30.02871522232131       -5.37360495785609       -0.03926348824805
H           30.08001212545690       -7.71307101985076       -0.86503787861153
H           31.67788884497701       -8.77247607291435       -4.09744635003520
H           32.21095375506585       -6.43198101051005       -4.35538381811323
H           32.14864725910608       -4.10244126864045       -3.54206904548966
H           33.74715836812767       -4.17724790010176       -1.48373291684833
H           35.56483872522652       -2.29496142628336       -0.85548629808151
C           23.58383188324621        0.02652739702724       -0.08993578645465
C           22.35536143367813        0.02816659713011       -0.08919473793669
C           21.01109875376121        0.02533188634095       -0.08567657649896
C           19.78705622392820        0.02013726499371       -0.08043651143263
C           24.92810220004311        0.02599332796659       -0.08559422799180
C           26.15215196940719        0.02737083565083       -0.07846582938950
