111
 energy: -199.766710684215 gnorm: 0.000677582884 xtb: 6.5.1 (b24c23e)
Fe          18.72701177415500       -0.03028904034389       -0.01571160612627
C           15.31347933209029       -0.00851160366379       -0.03796045920730
C           15.96242508085125       -0.87845041785631       -0.89036656464756
C           15.28599698166973       -1.77605677760025       -1.78090795887468
C           16.24569721448986       -2.42683455644603       -2.47948218819465
C           17.50521131170548       -1.92349663508959       -2.01475005359731
N           17.31976644824000       -0.98859206489148       -1.03373220563634
C           18.72510172790742       -2.31222897587156       -2.53304317199241
C           19.94247403950929       -1.83250531252171       -2.10053210171334
C           21.19690395284989       -2.23004745666932       -2.66532181412654
C           22.15887383893256       -1.58759375774738       -1.96101818920908
N           20.13857835613129       -0.94655714797981       -1.06864837219500
C           21.49014057136328       -0.80654442228052       -0.96504267835992
C           22.16270667918302       -0.03258363524059       -0.01072847421734
C           21.48775240299459        0.73665174204685        0.94593973914379
C           22.15456518362491        1.50804478878479        1.95057214597101
C           21.19106953454168        2.14144155001454        2.66105572117328
C           19.93784650804962        1.75047358118799        2.08933259797782
N           20.13601342583668        0.87475116555059        1.04886507284447
C           18.72041083830080        2.23214863678719        2.51935374124685
C           17.50206041198769        1.86097371014208        1.98482838357896
C           16.24300942240965        2.37673020197731        2.43691151440645
C           15.28473018889227        1.74816087811329        1.71631442359214
C           15.96155849789659        0.84922560610117        0.82744484419211
N           17.31791694244327        0.93849552884601        0.99193802477684
H           14.22939930498486       -0.00070723800826       -0.04640690326130
H           14.21413630203875       -1.87633062683598       -1.84729124944841
H           16.13428597151435       -3.17789247848087       -3.24553700754864
H           18.72482483478766       -3.03921672521666       -3.33752316729900
H           21.30624095403239       -2.91234692826267       -3.49326949969781
H           23.22772416967176       -1.62609678537737       -2.09345588164633
H           23.22313096829659        1.54630581020979        2.08543029081625
H           21.29905137810035        2.81461367448854        3.49660285997406
H           18.71935005595915        2.95075838956147        3.33134315253407
H           16.13066207530883        3.12104295519392        3.20939370896558
H           14.21356692620995        1.86350388096641        1.76788114465434
Fe          40.54402102125141        0.01234447037259       -0.00954549386157
C           43.95737836073177        0.02242502496659        0.04549219730873
C           43.30461347172455        1.23763674405073        0.08299952731962
C           43.97786276760304        2.50263766588646        0.13714785598029
C           43.01534116170892        3.45370528304882        0.17380852405068
C           41.75713908755249        2.76673012518477        0.14530513578414
N           41.94662601613731        1.41344641061816        0.08251390510101
C           40.53380935209204        3.40561932682641        0.19733159090675
C           39.31711896097405        2.75847276826239        0.18499482266211
C           38.05819180474410        3.43742409425980        0.25551334292714
C           37.09985409441054        2.48171995203905        0.20656375779619
N           39.12759507105667        1.40055534469120        0.09676066212825
C           37.77624910576551        1.22395192627333        0.10519874866327
C           37.10998735195695       -0.00113389559369       -0.01794183808356
C           37.78699575251461       -1.21962115194378       -0.14911942650761
C           37.12114652573588       -2.48086906219582       -0.27320247455651
C           38.08743104435681       -3.42733263540160       -0.34217389799792
C           39.34053394997887       -2.73980386004834       -0.25457613000701
N           39.13966447713528       -1.38517202671820       -0.14221327814945
C           40.56194495195742       -3.37803015374045       -0.26213177848167
C           41.77943619019972       -2.73295686416451       -0.16709196819767
C           43.04210210181072       -3.41216169362593       -0.16423652969611
C           43.99670043799817       -2.45671522784411       -0.07287972102660
C           43.31411104881950       -1.19662625718510       -0.02261316755175
N           41.95823286015061       -1.37995564222863       -0.07425024882899
H           45.04135058440157        0.02592007157686        0.06498915499535
H           45.04969002072143        2.62297195653870        0.14516580477012
H           43.12384624222933        4.52586327146335        0.21923224135599
H           40.53023293653192        4.48820390627273        0.25802982793064
H           37.94377162244594        4.50714750543299        0.33030638997902
H           36.02873926328525        2.60143535343778        0.22681403005661
H           36.05112179264066       -2.60927936936367       -0.29624478893783
H           37.98138440933612       -4.49620899256908       -0.43824344504736
H           40.56697193013199       -4.45921172465660       -0.34420601105448
H           43.15892655724521       -4.48267458107494       -0.22527121741102
H           45.06879527279452       -2.57118191096492       -0.04342714846557
C           23.56749549132353       -0.03040912893489       -0.00954752296169
C           24.78660505498471       -0.02674032183458       -0.00932239480472
C           34.48627876071077       -0.01110361008083       -0.01570324147527
C           35.70486688188345       -0.00713865113661       -0.01731708591658
Fe          29.63723361106837       -0.02874164368613        0.00267601291066
C           26.19070128089509       -0.02415400377444       -0.01040539936927
C           26.86475773108566        1.03169956500936        0.61801851287434
C           26.19563276963428        2.12583615645201        1.25255847277263
C           27.15957005463688        2.93337488866577        1.75676273490408
C           28.41289720925424        2.32941601506281        1.42183296871113
N           28.21675183185473        1.16858186024001        0.71497641188904
C           29.63416357372863        2.85765273005723        1.78463558931759
C           30.85721571837662        2.30375486742784        1.46769897197943
C           32.10951676336441        2.87275076847905        1.86254732703838
C           33.07527162170647        2.06979146537260        1.35405542193258
N           31.05496335334219        1.16410752789658        0.72879147237817
C           32.40735622054467        1.01816226719174        0.65015313978680
C           33.08191656881874       -0.01400880591574       -0.01436065670721
C           32.40931970774429       -1.04886797925345       -0.67649946800836
C           33.07934133683752       -2.10168526759407       -1.37649480276681
C           32.11529080818987       -2.90774809644152       -1.88328497215168
C           30.86179545156785       -2.33981542340096       -1.49089613408784
N           31.05695037465285       -1.19517669693779       -0.75891547116956
C           29.64027338773963       -2.89820332411568       -1.80569834428520
C           28.41788069385503       -2.37314704932470       -1.44200430892284
C           27.16598602528083       -2.98376405819943       -1.77046380211786
C           26.20044988936638       -2.17834299264853       -1.26596177546822
C           26.86697516078986       -1.07889029191710       -0.63803343061780
N           28.21924211036161       -1.20851670249114       -0.74257056024599
H           25.12590454581475        2.24917051297877        1.29462744651589
H           27.05154410289795        3.85510804968014        2.30592040349674
H           29.63303957497620        3.77644655164653        2.36085400263759
H           32.21590917022176        3.76878634279036        2.45302391342541
H           34.14528028019654        2.16438867357107        1.44354265214977
H           34.14950585362575       -2.19571888815654       -1.46444110179379
H           32.22389361634560       -3.80612152948419       -2.46978632820026
H           29.64134502331228       -3.81890029404221       -2.37883247943264
H           27.05975611391354       -3.90884984855054       -2.31427522601113
H           25.13118906807635       -2.30708730010775       -1.30301172284080
