110
 energy: -193.594340663542 gnorm: 0.000501913611 xtb: 6.5.1 (b24c23e)
Fe          13.67200904988323       -0.05178914278220        0.01372934535897
C           10.28614768289783       -0.08422238922278       -0.03180617226475
C           10.94236424563800       -1.29692302745297       -0.08405766115093
C           10.27263162413244       -2.56201262594944       -0.12751012491895
C           11.23033937812259       -3.51225601971381       -0.01575686799216
C           12.48597811913173       -2.82614093417678        0.08756910806015
N           12.29849428229707       -1.47238642493340        0.00839939556645
C           13.69626826516845       -3.45341602925197        0.36117783899577
C           13.70663365660287       -4.92429490420163        0.54408245160804
C           14.00153442501532       -5.49668296474675        1.78034321849187
C           14.00151146087759       -6.87745876859406        1.90143065537348
N           13.73627878491820       -7.69327598924763        0.88636588259676
C           13.45546848889833       -7.15475395468355       -0.29568371247894
C           13.42551963920940       -5.78625811202717       -0.51442515368373
C           14.89575295330788       -2.76443042256949        0.47509125190405
C           16.15544454163162       -3.38728218925878        0.75276530934577
C           17.10082817740240       -2.42389424018817        0.63686289804473
N           15.07471220197410       -1.42747888075083        0.21034975575667
C           16.42086145320077       -1.22001221055307        0.27588011880598
C           17.08117358775296       -0.03144491061453       -0.06138064677047
C           16.39638835445011        1.14837800020438       -0.37804650948298
C           17.04731480909513        2.35967956539676       -0.76635736007008
C           16.08642037461333        3.31183237358529       -0.84459317111695
C           14.84912634237630        2.67703053458252       -0.50186212994504
N           15.04898158492370        1.33612973828539       -0.27659918870467
C           13.64252287444955        3.34966988065401       -0.36151787403805
C           13.63821744356705        4.82463384868449       -0.48370088245394
C           12.88926340421394        5.47261188004124       -1.46522077187223
C           12.92121593260165        6.85652323447489       -1.53493473845318
N           13.63253234020703        7.60785717906515       -0.70069961572757
C           14.34815137324682        6.99812663474819        0.23884860388855
C           14.38589741843108        5.62044775764952        0.38387094879182
C           12.44049884764630        2.69581016237470       -0.11131623977434
C           11.18112083846266        3.35923940329749        0.06589258960901
C           10.23656300530315        2.39174441706879        0.14141790898974
C           10.92167873183806        1.13951867797996        0.02918611574131
N           12.27201353985322        1.33789304594315       -0.08800456084122
H            9.20204359938901       -0.09405184039831       -0.02541683238225
H            9.20487673364788       -2.68591124297871       -0.21448200787913
H           11.10918588303983       -4.58294351702170        0.01267476491916
H           14.21422297407512       -4.86941667217557        2.63771574000318
H           14.22493186810404       -7.34763162632655        2.85459348106640
H           13.24534285536508       -7.84741398124083       -1.10533617235655
H           13.20211122274208       -5.39149590574921       -1.49829549691651
H           16.29118279516976       -4.42907534580669        0.99285470469980
H           18.16598278954481       -2.51001442070753        0.77466923895658
H           18.10345485084472        2.45587037088040       -0.95672378161632
H           16.19498244744893        4.34942652752798       -1.11495966362235
H           12.30407792779078        4.90027751039754       -2.17503234727555
H           12.35028590373371        7.38385041195041       -2.29353448909506
H           14.91718568778815        7.63891907107241        0.90601659368715
H           14.97533405087682        5.16656268125327        1.17159752824229
H           11.04946308910383        4.42749252141238        0.12399377299230
H            9.17042228143651        2.49708915699719        0.26477578709550
Fe          24.51828537031576        0.05354334715487       -0.00192125885255
C           27.90414682757523        0.07133640678165       -0.05491985549944
C           27.24793039455653        1.21646122628803       -0.45748958306283
C           27.91766318962511        2.41427024337265       -0.86687107362932
C           26.95995559091242        3.35595733396104       -1.03621402615150
C           25.70431674723252        2.72952050242294       -0.73787398097246
N           25.89180039871897        1.41122592384739       -0.42003979016778
C           24.49402654962710        3.40924713417719       -0.65845580953517
C           24.48366132808136        4.86976640873536       -0.91108663264401
C           24.18876198338883        5.77685209912185        0.10536069618198
C           24.18878482255570        7.13318817627695       -0.18022010637683
N           24.45401595221717        7.61865195132038       -1.38862399034726
C           24.73482486384732        6.75973039393442       -2.36304779866612
C           24.76477386288983        5.38675252502750       -2.17447295202189
C           23.29454166634378        2.78314204931649       -0.34915117542440
C           22.03485025543117        3.45981883115703       -0.26455671301799
C           21.08946650443457        2.50434930653566       -0.09536031285979
N           23.11558221913165        1.42697260415256       -0.21375676904157
C           21.76943300808702        1.24752019528666       -0.09073783579299
C           21.10912085087513        0.01224124465999       -0.06787094188881
C           21.79390614294864       -1.20868343206822       -0.02784245245706
C           21.14297962664714       -2.48055668313689       -0.04721247898808
C           22.10387421893329       -3.41432604553074        0.15475344540514
C           23.34116831701204       -2.70730156616885        0.29812078874952
N           23.14131303274445       -1.35883080756722        0.12380743073921
C           24.54777151260348       -3.31008232306334        0.62796342644411
C           24.55207658625613       -4.75685573546436        0.93988336311802
C           25.30103198003450       -5.66220676205736        0.18915419223596
C           25.26907912423621       -7.00660587788582        0.52480537687049
N           24.55776136108822       -7.48294193840840        1.54144345781269
C           23.84214099576244       -6.62638892052027        2.26313398630992
C           23.80439498910589       -5.26605821668195        2.00134986790257
C           25.74979540013989       -2.61172445523954        0.67725871004587
C           27.00917306425038       -3.19497461267354        1.03969683205262
C           27.95373101248049       -2.24731417932156        0.83067494969395
C           27.26861563527596       -1.08181037315098        0.35922335794721
N           25.91828087196681       -1.30568722050890        0.30476856549249
H           28.98825091208036        0.08259879429036       -0.05166419436300
H           28.98541810902265        2.50753096045362       -0.98610760129247
H           27.08110916368782        4.38866110130451       -1.32029672281684
H           23.97607448289152        5.42594799008962        1.10806573329131
H           23.96536547755160        7.86016786051179        0.59507525175471
H           24.94494927206766        7.18707722966558       -3.33910630796542
H           24.98818123184780        4.72299831463969       -3.00107374065605
H           21.89911226191544        4.52641259836272       -0.33772571975266
H           20.02431202485070        2.62681488917532        0.01145597335465
H           20.08683930096747       -2.62793835478090       -0.20138805074146
H           21.99531223609321       -4.48570493825133        0.19772950847432
H           25.88621883239518       -5.32096361834842       -0.65639332482100
H           25.84001033095370       -7.73170681732904       -0.04771085823034
H           23.27310527247647       -7.04553102179781        3.08778323276322
H           23.21495714404633       -4.60275863155425        2.62308699892628
H           27.14083050544511       -4.20019058367978        1.40586810901998
H           29.01987156893343       -2.31224363776444        0.97933286894338
C           18.48586503696770       -0.01908912752391       -0.07152241288355
C           19.70442938502735       -0.00252965373114       -0.07398248831914
