123
 energy: -228.236890929163 gnorm: 0.000572960062 xtb: 6.5.1 (b24c23e)
Ni          11.03269954934019       -0.01664204399387       -0.02092279126616
C            7.62090447996131       -0.06514543021001       -0.01076550074930
C            8.28060794428837       -0.91133324618510       -0.87807389040151
C            7.61190388088178       -1.80603581235895       -1.77615740419297
C            8.57693508935280       -2.45944087673655       -2.46418366250753
C            9.83252213989415       -1.96429510028181       -1.98256973507425
N            9.64185606752554       -1.01531420021069       -1.01110792773923
C           11.05581404909339       -2.40257690619102       -2.44588007227661
C           12.26910295770045       -1.94129712462490       -1.98052157424274
C           13.53062907733929       -2.41509298978624       -2.46169085936826
C           14.48484549989230       -1.74537608519291       -1.77218804602177
N           12.44725228683842       -0.98677911895266       -1.00569705390265
C           13.80230797190347       -0.86424166647182       -0.87545701649560
C           14.46572882517215        0.00006312000413        0.00090210382022
C           13.78288574518686        0.86583609717342        0.86065245697812
C           14.44541981514916        1.76675227409829        1.75273097974904
C           13.47607614215487        2.44273960869468        2.41443007266334
C           12.22540568353728        1.94921540545471        1.92481684276987
N           12.42513141942482        0.98025937161219        0.96862097103685
C           11.00188304437666        2.39903865487826        2.37432887501275
C            9.78882562544663        1.92378299914843        1.92062253973059
C            8.52246524669565        2.38935958678611        2.40347494328519
C            7.57257988688901        1.69319018705904        1.73663617377060
C            8.26127804226254        0.80616136028049        0.84607505276731
N            9.61969390661577        0.95398945645964        0.96587772037480
H            6.53726569384234       -0.08222630410857       -0.00592182409003
H            6.54056187746869       -1.90344109751883       -1.85367962556478
H            8.47172938299334       -3.21166784877865       -3.22992324153968
H           11.06450763745704       -3.16043436373910       -3.22074370353642
H           13.64949027763269       -3.16482075995196       -3.22764334357787
H           15.55711954129154       -1.82613484700270       -1.85045796987775
H           15.51579668886820        1.85670455493724        1.84565593947597
H           13.57789493172958        3.20698661628684        3.16838751367911
H           10.99341620651295        3.17092811395107        3.13521693967904
H            8.40025201761845        3.15091116421057        3.15737738147089
H            6.49940898771748        1.75836795443776        1.82226163868930
Ni          48.26821237208716        0.00484023328383       -0.00400506378050
C           51.67910691570329        0.04200502796102       -0.07787534202373
C           51.01482955386656        1.25077299288880       -0.11093902443971
C           51.67855328203584        2.51978809749576       -0.16861091948823
C           50.71025344157108        3.46529477494632       -0.16929970003175
C           49.45751283357782        2.77130203761310       -0.11767552359875
N           49.65327095324420        1.41444197661249       -0.08142454766837
C           48.23193138597231        3.40462400461891       -0.11679626611628
C           47.02118635641298        2.74509958397711       -0.09156942886777
C           45.75696965160571        3.41494863666673       -0.11629934307987
C           44.80659679914277        2.45019018602468       -0.09622466411174
N           46.84848966068219        1.38073579889950       -0.05227439356786
C           45.49407072223866        1.19634629922698       -0.05415257627489
C           44.83580324074462       -0.03639502341506       -0.01274602489136
C           45.52320619778182       -1.25197796110246        0.05314657068864
C           44.86569436552956       -2.52049049535167        0.12448296921192
C           45.83868360244823       -3.46006694608582        0.19434261676698
C           47.08663390214422       -2.76078262914878        0.15970473831270
N           46.88161674718409       -1.40307207215866        0.07347963326053
C           48.31273303769696       -3.39068318117069        0.19766888577639
C           49.52301029209269       -2.73111842040675        0.13938003113872
C           50.79196685151960       -3.39685600315722        0.15299767098572
C           51.73756976264229       -2.43265745095649        0.06494793220278
C           51.04383255615495       -1.17997551198769        0.00359963160262
N           49.68649331988134       -1.37253204091268        0.04882287566189
H           52.76242875145851        0.05356350681105       -0.10725182576038
H           52.74915928586064        2.64646099541943       -0.20063397147637
H           50.81143861537637        4.53854103904024       -0.20359343988019
H           48.21904563420468        4.48800663575140       -0.14764342530479
H           45.63386190562093        4.48581232810043       -0.14781031584591
H           43.73390072061294        2.55815752178599       -0.10619951784453
H           43.79586661008733       -2.65429844608383        0.12314612530611
H           45.74105662494077       -4.53194561375160        0.26105806240637
H           48.32558819290335       -4.47225939492101        0.26740944967913
H           50.91864527305699       -4.46589018256054        0.21921166666996
H           52.81094271489518       -2.53624920353327        0.04461860878517
C           15.87083604253307        0.00309879861884        0.01315655145237
C           17.09516667913390        0.00410999806336        0.02238330747647
C           18.43863625336958        0.00406336810449        0.02960731093616
C           19.66921676374423        0.00387026261564        0.03327215667825
C           21.00779253014321        0.00216875215973        0.03434387483996
C           22.23842985400151       -0.00223679376091        0.03314217829894
C           23.58171102082224       -0.00578663462086        0.02842601891484
C           24.80612570329971       -0.00934267210027        0.02148348007814
C           34.49493316028281       -0.06369811608790       -0.03221370821548
C           35.71926822814217       -0.07237737665066       -0.03596692124913
C           37.06285210426758       -0.07870044169264       -0.03847499995619
C           38.29334474568198       -0.08184652207493       -0.04218632871708
C           39.63220933735183       -0.07971310797236       -0.04316496134529
C           40.86262217018217       -0.07370162927596       -0.03988236598543
C           42.20636409380639       -0.06457009266655       -0.03345191582590
C           43.43042546472106       -0.05288780333053       -0.02420400319787
Ni          29.65038616552650       -0.02604982869390       -0.01713679543929
C           26.21070133801215       -0.01343601296480        0.00999673344076
C           26.89499891181221        0.90106171929664        0.81689011349259
C           26.23336486008534        1.84981358840856        1.65798874745006
C           27.20360487916180        2.56424106526024        2.27714921426106
C           28.45292582011593        2.04628280263462        1.81149949379461
N           28.25273541506058        1.02305095698275        0.91407282023652
C           29.67740170525921        2.52666389658436        2.22498074428577
C           30.89172931137270        2.03682398742443        1.79295558729811
C           32.15198133712579        2.54531340545034        2.23920457707224
C           33.10709944211563        1.82034548514847        1.60889380569877
N           31.07021951486079        1.00976222350535        0.89542005182838
C           32.42537615599308        0.87453040747709        0.78052625478197
C           33.08994613843891       -0.05297017526079       -0.02777633406445
C           32.40586671153028       -0.96642279044001       -0.83581584089342
C           33.06755363852959       -1.91652643936999       -1.67542783995857
C           32.09735505835649       -2.61777533836416       -2.30949344804003
C           30.84800201508437       -2.09282685318310       -1.85180853490040
N           31.04806739054628       -1.07784321959423       -0.94518656807558
C           29.62350357839425       -2.56191607531271       -2.27816412215626
C           28.40919303170344       -2.07441925699895       -1.84354692571167
C           27.14896538734277       -2.58024444763866       -2.29278721299489
C           26.19384162809220       -1.86744788171361       -1.64873929309159
C           26.87552486946227       -0.92953661868580       -0.81142153736621
N           28.23061280557739       -1.05888517581623       -0.93294529119254
H           25.16310249222258        1.94304839069842        1.74883009145182
H           27.10272095671812        3.37021364799669        2.98642376241720
H           29.68597959643358        3.34206573844408        2.93917684294090
H           32.26993126080823        3.35240453767349        2.94456863374575
H           34.17929572159726        1.90406631189422        1.68492170799996
H           34.13781894179320       -2.01794598862376       -1.75694566650567
H           32.19828359179192       -3.41950082463508       -3.02355328585279
H           29.61497278841196       -3.36969859978575       -3.00096098875624
H           27.03102590136156       -3.37851844561915       -3.00811703404312
H           25.12165873434969       -1.95392898530294       -1.72169019390229
