238
 energy: -427.862779051612 gnorm: 0.000572708951 xtb: 6.5.1 (b24c23e)
Fe          29.45893401938326       -0.02117363949011       -0.02995543614262
C           26.06982369240686       -0.04475552750211       -0.01014555679328
C           26.72324127602757       -1.25975144673923        0.00062897440172
C           26.04789764441005       -2.52234927062381        0.01198145305192
C           27.00472957996900       -3.47326241409194        0.12341705901715
C           28.26509077295250       -2.78989928377663        0.17510884069534
N           28.07946381806897       -1.43676658403276        0.08302758054487
C           29.48195982309115       -3.42289629409795        0.40181389871004
C           29.49278449773919       -4.89561224630924        0.56928295373010
C           29.84741410515290       -5.48428593235915        1.78199594903181
C           29.84440649213141       -6.86637487145980        1.88736003361964
N           29.52088795312008       -7.66893310378219        0.87857472366676
C           29.18271499215150       -7.11498045586988       -0.28118461537678
C           29.15141623976203       -5.74397384652237       -0.48276324295676
C           30.68679461330519       -2.73947463726842        0.47781122130485
C           31.95293713002566       -3.37427515191671        0.69509505128756
C           32.89749032780309       -2.40948732821389        0.58892337701473
N           30.85991000810118       -1.39316485974888        0.25826669892126
C           32.20782994943880       -1.19156751593939        0.29817788209944
C           32.86679818951895        0.00798436575766        0.00544809211033
C           32.18995702759715        1.19636415773682       -0.29251439723969
C           32.85815970252428        2.41477001378782       -0.62731405552670
C           31.89886863273832        3.36445341412821       -0.74134415904784
C           30.64752853078429        2.72262976845399       -0.46747336267078
N           30.84084752918616        1.38296109758279       -0.22890838290326
C           29.43071093527713        3.38764575635574       -0.41397798998238
C           29.42216506828773        4.85851831142463       -0.58533695810971
C           28.74584589076737        5.46328098816377       -1.64399231138731
C           28.77284755588841        6.84407888854707       -1.76148099197608
N           29.41312689890860        7.63187096838242       -0.90365316651431
C           30.05813908642375        7.06333835277970        0.10995693044561
C           30.09400933858682        5.69217106677770        0.30806384630547
C           28.22158272569975        2.73290439578368       -0.20761466681791
C           26.95438708934699        3.39862028094210       -0.11325161459254
C           26.01205832977580        2.43270661571059       -0.00594591548701
C           26.70486660904667        1.17970211646288       -0.02234293104632
N           28.05831098793673        1.37738729745507       -0.10821683105488
H           24.98568130245905       -0.05280388786682       -0.00631783612166
H           24.97802974514354       -2.64410861149127       -0.04746546031209
H           26.88041249234485       -4.54234303209387        0.18197662640515
H           30.10833915274181       -4.86842422657304        2.63432240524779
H           30.11371581827644       -7.34892813624051        2.82230999080287
H           28.92600367752694       -7.79694927677809       -1.08656186618035
H           28.88023163628355       -5.33645588823640       -1.44931136427609
H           32.09241830944416       -4.42557145820646        0.88678200517487
H           33.96765143302498       -2.50113650935873        0.68155769942709
H           33.92395259578816        2.51484722869247       -0.75495998833524
H           32.01703009371500        4.40535259453435       -0.99451204688851
H           28.22039318304295        4.85987824889982       -2.37451676064524
H           28.25821130841088        7.33814705732630       -2.58041022792008
H           30.56978323883793        7.73329890009697        0.79473119146988
H           30.62422798282332        5.27274930483963        1.15476340406736
H           26.81724567567960        4.46766795874550       -0.12575245995448
H           24.94212783990635        2.53878756648708        0.07747970458579
Fe          85.11347651206148        0.03072521068406       -0.01592533486698
C           88.50726372670064        0.05037547512247       -0.02425853168730
C           87.85675164414594        1.22852449564988       -0.32581937684120
C           88.53903314931593        2.45036268529649       -0.62895235495067
C           87.58430966443335        3.39094853388192       -0.81717233825302
C           86.31912321825887        2.73945357636417       -0.63607868827011
N           86.49934142218402        1.41560070485500       -0.33881172380319
C           85.09596835689591        3.39749942052374       -0.69387833263661
C           85.08811897947935        4.85021324181425       -0.98838924527628
C           84.65419662075577        5.77747332604085       -0.04229599349184
C           84.66466998167093        7.12549763224592       -0.36464041172019
N           85.06727649734131        7.58466546632559       -1.54511303644606
C           85.48051860692961        6.70646387127625       -2.45303496291702
C           85.51191769322052        5.33998830728495       -2.22270591182536
C           83.88215731475641        2.75871620873689       -0.48965692068521
C           82.61262743723181        3.41743860931133       -0.57759104259205
C           81.66616983314475        2.46848879449100       -0.38451566113523
N           83.70858589700904        1.41680716978375       -0.24440721294854
C           82.35911332524802        1.23380106765981       -0.18681587148375
C           81.69969454414974        0.01382497780601        0.00376825259345
C           82.37377682631320       -1.19839452419165        0.19189708319729
C           81.69692265418296       -2.44682214810296        0.35535622712465
C           82.65513585334769       -3.38592244688281        0.53926602322139
C           83.91487851154828       -2.70435484609197        0.49718956724171
N           83.72509133154311       -1.36311475484053        0.26133861556730
C           85.13778875098308       -3.33414990101394        0.67513148422090
C           85.14794123008799       -4.78678740754014        0.96649068829908
C           85.72969210761038       -5.69726708673315        0.08539942854061
C           85.70822092441806       -7.04732280793635        0.39835890215039
N           85.16012801566316       -7.52422995355646        1.51130659108182
C           84.60664032455698       -6.66225440433135        2.35816547217747
C           84.57337227716235       -5.29548619598075        2.13048991520587
C           86.35388567292469       -2.66561333227930        0.59064341563637
C           87.62577295478870       -3.29174248170306        0.81004939423323
C           88.56882272728141       -2.34155222479411        0.61091800345636
C           87.87194240773228       -1.13527905228461        0.28017003559390
N           86.51706815770891       -1.34036557465111        0.29016206147592
H           89.59144861717381        0.05775588601135       -0.02284433720837
H           89.61113384640332        2.55603422388663       -0.67785632400305
H           87.71194392154500        4.43635601920699       -1.04652319435106
H           84.32633892046647        5.44856957607793        0.93656171781710
H           84.33530207022662        7.86777252448200        0.35647785099492
H           85.80041711092981        7.11234153104457       -3.40825953947124
H           85.84672471843120        4.65945805961656       -2.99638756945404
H           82.47380934859829        4.46778471466356       -0.77482519613198
H           80.59364784984501        2.57732768617803       -0.38141138617116
H           80.62667356961215       -2.57282417570598        0.32570812204000
H           82.53086266869060       -4.44678312782979        0.68259558994608
H           86.17822803392899       -5.35438860001701       -0.83933790628066
H           86.15011198317922       -7.77659246476812       -0.27429204403449
H           84.16907150298150       -7.08228103670662        3.25910284950825
H           84.11970508612931       -4.62850661317586        2.85382758011258
H           87.76502782742061       -4.32400055713782        1.08723735708555
H           89.64147177363878       -2.42863107598574        0.68015228445859
C           34.26775859537221        0.01935127030924        0.00420999595865
C           35.49364344271977        0.03121910778358        0.00424190244933
C           36.83326799276120        0.04217405547745        0.00364874222089
C           38.06556112297482        0.05056511526115       -0.00069639549340
C           39.40026413261479        0.05394752943155       -0.00566472343488
C           40.63272241035579        0.05315331843312       -0.01135188236377
C           41.97199995583020        0.04674320321848       -0.01972112977808
C           43.19816121907128        0.03865086095059       -0.02945830839034
C           52.82576646938177        0.02094916803003       -0.02542896107971
C           54.05261789920640        0.02225934412251       -0.01826346840744
C           55.39080990492761        0.02411934502605       -0.01214548977065
C           56.62400579757869        0.02791452532237       -0.01070493736989
C           57.95743199732617        0.02786311213761       -0.00826490839466
C           59.19065717488104        0.02895241122909       -0.00839625379763
C           60.52880034344034        0.02637034332977       -0.01040524170889
C           61.75570525587011        0.02136081455969       -0.01199978566835
C           71.36880305534670       -0.01008618872264       -0.01801399948489
C           72.59549025097790       -0.01081525244903       -0.01865502835669
C           73.93415699726263       -0.01110715272819       -0.01805776129300
C           75.16702152841499       -0.00945760798016       -0.01528231569925
C           76.50108797085332       -0.00715180184355       -0.01172709970848
C           77.73384561554479       -0.00411819012600       -0.00753922467533
C           79.07291085440653        0.00114386585517       -0.00370409594509
C           80.29921302027159        0.00540279548857        0.00052062318668
Fe          48.01263960903879        0.01283814177642       -0.04645174067377
C           44.59798928014882        0.02907852998942       -0.03690318940169
C           45.26702149499319       -0.75180510739185        0.91402956288612
C           44.59201134546878       -1.51563291083523        1.91547946644018
C           45.54513326620307       -2.21907223473158        2.57379171998928
C           46.79721614795535       -1.88620789900160        1.96370956037563
N           46.61370741928686       -0.95434465388031        0.97198066760095
C           48.00787513996943       -2.47650131579706        2.30452903887307
C           48.00533436611904       -3.55222269379829        3.32255450485284
C           47.31912480091511       -4.74721427605660        3.11074080325581
C           47.34945705305226       -5.72558054292931        4.09204679974177
N           48.00066521939128       -5.57853319062766        5.24126364463522
C           48.65387658718532       -4.44052246935804        5.45245934012364
C           48.68873374942743       -3.40740412821883        4.52915745532559
C           49.22022760298009       -2.10311609079364        1.74011031502894
C           50.47238632161680       -2.72669273862077        2.04781620508723
C           51.42884865653609       -2.02250791480253        1.39540485939557
N           49.40791596404075       -1.05797825612384        0.86827026703776
C           50.75567295668376       -0.98132118703225        0.68466706216088
C           51.42716208427926        0.01565899242403       -0.03535484173379
C           50.75786842670539        1.00552637641036       -0.76697686695586
C           51.43358593286153        2.04251646809376       -1.48141002707108
C           50.48078596679787        2.73524065126308       -2.15119682399547
C           49.22796882156342        2.11092475378468       -1.84778263865156
N           49.41158200348806        1.07458416132080       -0.96486086607995
C           48.01780180819538        2.48065559554271       -2.41973515161665
C           48.02104511085135        3.54803399578358       -3.44639329069549
C           48.71164393217008        3.39351645642888       -4.64767588883896
C           48.68425335083839        4.41998446263899       -5.57860308940157
N           48.03148431209612        5.56045711945734       -5.37985829823762
C           47.37337949955769        5.71679207740019       -4.23588946666254
C           47.33565410079399        4.74574931408103       -3.24758289333236
C           46.80435066477653        1.90078561998460       -2.07115011038520
C           45.55180682375176        2.24050002889255       -2.67667435109604
C           44.59517766162264        1.55788441475197       -2.00174165464040
C           45.26866702274311        0.79675573740025       -0.99727501490086
N           46.61732264543818        0.98123808356538       -1.06844375449575
H           43.52676468332287       -1.50612816775828        2.08060910609185
H           45.42149765790098       -2.89980375667702        3.40008300356455
H           46.78297979266807       -4.91392002118965        2.18412479602424
H           46.82782715497625       -6.66725313511948        3.94845848830162
H           49.17342161459543       -4.34964010438245        6.40183636294287
H           49.22612363705595       -2.49234088775599        4.74771556510218
H           50.59367081069473       -3.59156758717700        2.67928944975169
H           52.49504020859255       -2.18159190757211        1.38689030100681
H           52.49908943177615        2.20556037974288       -1.46476653350837
H           50.60487319723664        3.59388710610921       -2.79052691052192
H           49.24915132338746        2.47619148063237       -4.85605035190818
H           49.21002187898618        4.32168397033904       -6.52376012886798
H           46.85231580088696        6.66024619498518       -4.10238644301326
H           46.79475009658687        4.92062826092866       -2.32528354954294
H           45.43005799017050        2.91206840397585       -3.51069395043535
H           43.52856858171472        1.55961516770026       -2.15824376998445
Fe          66.56176269125871       -0.00159774925489       -0.02351783417851
C           63.15396662956106        0.01557511293135       -0.01490213894652
C           63.82494563492928       -0.73055792248390        0.96368964310465
C           63.15755164217614       -1.45457598772360        1.99929815663679
C           64.11105209633415       -2.16164426325463        2.65394369159122
C           65.35547337518325       -1.87332489036754        2.00607255000314
N           65.16843118487002       -0.95307747764387        1.00353221911984
C           66.55584871172243       -2.50818348951425        2.29968115988511
C           66.55382419905575       -3.59122575416674        3.30855541186073
C           65.78765235658760       -4.74310743723083        3.13370642791891
C           65.81931155508433       -5.72901170135928        4.10730361354920
N           66.54600218008953       -5.62915250834614        5.21568183498343
C           67.27722712259829       -4.53330448204832        5.39114187931947
C           67.31675479548286       -3.49676451465191        4.47194537951016
C           67.75883321727891       -2.17046552860409        1.69077046622430
C           69.00046109590556       -2.84259669549554        1.93030714480253
C           69.95757871961715       -2.13745732185523        1.27846723597429
N           67.95046377382644       -1.10026784243480        0.85223549123104
C           69.29503212014681       -1.04644290558651        0.63643419388038
C           69.96999937705358       -0.00799084399622       -0.01940778436108
C           69.30028202267754        1.03063035626614       -0.68038536327764
C           69.96928366605140        2.11278685342269       -1.33101799916278
C           69.01733540465698        2.81433320396931       -1.99411016919042
C           67.77191680518254        2.15088891902558       -1.75003909608335
N           67.95649412179093        1.08821710472881       -0.90038339678091
C           66.57045094345784        2.49296567454231       -2.35945045606047
C           66.57608752635879        3.56729781498341       -3.37764344546189
C           67.33286160654654        3.45423507724762       -4.54334858175547
C           67.30177851779057        4.48372061366408       -5.47075776271269
N           66.58507161738210        5.58995399227945       -5.30087486518616
C           65.86451730887157        5.70753015465153       -4.19033706710940
C           65.82469805225874        4.72972299607833       -3.20890555428631
C           65.36490601226122        1.87293173179382       -2.05552084313187
C           64.12031181995660        2.17090527026696       -2.69857409292240
C           63.16258152459132        1.47877852823210       -2.03418920197801
C           63.82757089875532        0.75310248308570       -0.99827140162806
N           65.17308039173531        0.96131934349520       -1.04598345599532
H           62.09656684831665       -1.41936781686240        2.18723845537428
H           63.99192927541544       -2.81861298050285        3.49993809373074
H           65.18884221020609       -4.87208929318206        2.24003132594288
H           65.23549242434255       -6.63737468845656        3.99166114528919
H           67.85749749401431       -4.48026955656775        6.30758045260753
H           67.91848525233898       -2.61609622809548        4.66207108203100
H           69.11543303661169       -3.73765809592414        2.51948202261847
H           71.01820843882820       -2.32481300112262        1.23160190044915
H           71.03050685267316        2.29634431958734       -1.28284170330310
H           69.13823724605216        3.70168493902232       -2.59378500015410
H           67.92359358802565        2.56505144125520       -4.72862383727049
H           67.87821493036630        4.41670288499147       -6.38880934535203
H           65.29171764792967        6.62366007236711       -4.07979536982712
H           65.23107528583459        4.87296250569307       -2.31390816739711
H           64.00389665102493        2.82400665236234       -3.54793052573922
H           62.10033753088172        1.45396368961764       -2.21643358124198
