310
 energy: -592.997311169334 gnorm: 0.000921948146 xtb: 6.5.1 (b24c23e)
C           66.92518848926287       -0.02774799646276       -0.03806469020911
C           67.51602115846151       -1.25627684000860        0.22575511064929
C           66.84628963873973       -2.48931191637779        0.46477666806678
C           67.79473301014677       -3.44880505012070        0.67768926248301
C           69.07492652645526       -2.82983496105278        0.58643088510120
N           68.85598490297612       -1.51187347370623        0.30628303107662
C           70.33077911510703       -3.43449038866025        0.71356317750054
C           70.33858502564755       -4.88466022659942        1.01964639875604
C           70.91915631717605       -5.79114471595370        0.12728368840051
C           70.92241770309552       -7.14606298318542        0.40422300516449
C           70.34365233419089       -7.59883106742857        1.58639819867173
N           70.34366113860500       -9.02113484977728        1.88188436764757
O           70.86527845239870       -9.75600592723313        1.08321145308122
O           69.81951984213734       -9.37742795477293        2.90566957008109
C           69.76325819571723       -6.71301474487246        2.48954589922667
C           69.76104470282057       -5.36043276262341        2.20074343728177
C           71.55904228558123       -2.78221935048530        0.57493263043946
C           72.84452315306554       -3.43130128270917        0.76190586214349
C           73.78250994335967       -2.48397710052214        0.55921226422488
N           71.73831440970768       -1.46526406409479        0.28288214864610
C           73.07132295338323       -1.25593235622369        0.26123237822333
C           73.72923390879227       -0.04264320254146       -0.02108836096656
C           73.11054515353902        1.18752353524878       -0.31332577201189
C           73.76972302944597        2.41022826867362       -0.60762776139295
C           72.81591166006328        3.36464711308174       -0.82655197404724
C           71.54148225965338        2.75631374018200       -0.65626750870807
N           71.77110456164951        1.44047236705138       -0.35442358092532
C           70.28708090496457        3.36032348733136       -0.79963122206217
C           70.27671693471189        4.80510870450450       -1.12619204348860
C           69.68473140632349        5.25526270957271       -2.31051335004104
C           69.67168308208305        6.60241462922669       -2.62249100847772
C           70.25146258907787        7.50930650570692       -1.73987638396924
N           70.23878083109801        8.92577300146009       -2.06104531118916
O           69.70535172328323        9.25973093960108       -3.08756534170848
O           70.76215716414059        9.67863426693806       -1.28023735562985
C           70.84335073694683        7.08259925581457       -0.55452717501281
C           70.85575833379063        5.73264514853766       -0.25449859300183
C           69.05772564997743        2.70828441320088       -0.65445829629548
C           67.76398687831465        3.36852165934771       -0.74752283102905
C           66.83405995267672        2.41724014906862       -0.53249927849148
C           67.55821581301707        1.17996864079407       -0.29798881334859
N           68.89505257018101        1.39474935234821       -0.37255481669837
H           65.84002592738919       -0.02016430383307       -0.03938817579303
H           65.77532108917123       -2.61353154224527        0.46375948502964
H           67.62818394938841       -4.49583048252304        0.87191841389657
H           69.59036240871731       -0.82525579744686        0.17060874673052
H           71.35447140580740       -5.42730673649631       -0.79606160665149
H           71.36400401161757       -7.85672878199615       -0.28399677061833
H           69.32386261850733       -7.09027938376381        3.40514185122795
H           69.32437434422448       -4.65951896054308        2.90263638936240
H           72.98917508345750       -4.46656674799131        1.02452622197210
H           74.85457182192367       -2.58407652315588        0.60133470203284
H           74.83904550470288        2.53717008985407       -0.64590854382726
H           72.97915385187014        4.39663752198664       -1.09058065693309
H           71.04012173225345        0.75604255986726       -0.19015679585485
H           69.24816821717678        4.53781921518970       -2.99543007565787
H           69.22120097387884        6.95975918983992       -3.54067752104369
H           71.28283680295142        7.80920775648625        0.11822784912881
H           71.30008365550212        5.39011289576640        0.67280285210471
H           67.61328634524757        4.41907467913748       -0.93646411812439
H           65.75993961910189        2.51332211758764       -0.51856075465247
C          117.32971911434186        0.05120325133640       -0.05351594340579
C          116.71683459866271        1.23751290331026       -0.43481499745274
C          117.36444312338823        2.43214497931429       -0.85835327050964
C          116.39985524313759        3.36150085848266       -1.12613258479099
C          115.13175592399816        2.76707547314421       -0.86436031305999
N          115.37327198654206        1.48510758533574       -0.46226160585598
C          113.86567780079905        3.34808492017663       -1.00344411231839
C          113.82958444266454        4.76764918635454       -1.42556199963147
C          113.18367274799871        5.13539711789997       -2.61008308889425
C          113.15310806277292        6.45795636472660       -3.01304868665401
C          113.76948231703224        7.42311695817254       -2.22179264367733
N          113.74109422206058        8.81402049623374       -2.64008777234080
O          113.17172972978686        9.07509425256808       -3.66822908289158
O          114.28992589103446        9.61947841275798       -1.93283600253788
C          114.41393630138475        7.07903467448458       -1.03709475892417
C          114.44357318654443        5.75285277978793       -0.64599287218162
C          112.65107270571225        2.69634542984927       -0.77242919272910
C          111.35507523955745        3.34711679806351       -0.84856737021410
C          110.43663303719133        2.40216730003075       -0.56127184857059
N          112.49854190793106        1.39012805955745       -0.42276002893749
C          111.17162612634800        1.17862061557542       -0.30347978382064
C          110.53778459840665       -0.03584323926843        0.02595636139006
C          111.17667929394479       -1.24376745412857        0.36250422423041
C          110.53806846496312       -2.47702748346699        0.65893226711787
C          111.50772161380849       -3.40001319391796        0.93674252509961
C          112.77071351596656       -2.75530995884201        0.82384879577000
N          112.51914898494806       -1.45739443137588        0.46737289712043
C          114.03626062558152       -3.32706374397164        0.99900261252272
C          114.07491567988495       -4.74887620175718        1.41056243192341
C          114.70627806893391       -5.69893273545961        0.60121106780396
C          114.74638877810972       -7.02879808465639        0.97775553899864
C          114.15442288519381       -7.41282875036655        2.17766460871368
N          114.19568802571852       -8.80809913110088        2.57920052228457
O          114.75323983995422       -9.58285435056481        1.84503476143220
O          113.66882276872353       -9.10388263907791        3.62076641124308
C          113.52303464929361       -6.48320674884296        2.99905027610925
C          113.48331014233085       -5.15655687719435        2.61037079634983
C          115.25231162242211       -2.66087613481901        0.80913904553939
C          116.55896229617056       -3.25376677380641        1.05282325778040
C          117.46934828039967       -2.30557872842547        0.75585395976036
C          116.72045501378661       -1.13154481911840        0.34235521102681
N          115.38819295855386       -1.37886556870247        0.39778973372069
H          118.41481647260599        0.05918194589711       -0.06842425716509
H          118.43239102695308        2.54994401575434       -0.94791552438245
H          116.54785189548817        4.36768855297193       -1.48307071843038
H          114.65061157017338        0.81472950749724       -0.22229759092040
H          112.71901580142239        4.37257514661507       -3.22380737494025
H          112.66128807831484        6.75153685186590       -3.93263352132154
H          114.88118374830007        7.85000718162688       -0.43627624794017
H          114.93007087370130        5.47480229429652        0.28171718825074
H          111.19207859334188        4.38877763013291       -1.07251048880588
H          109.36504701783480        2.50425230917060       -0.50580002985744
H          109.47176562191287       -2.63386441074094        0.64718697645581
H          111.36325530662118       -4.43896420689072        1.18407816716391
H          113.23908913805253       -0.76391380016307        0.29265768204182
H          115.15176779513359       -5.38951695301546       -0.33699517964083
H          115.22763261755922       -7.77255174875916        0.35411337160910
H          113.07451938492494       -6.80690334090992        3.93061310627693
H          113.00775358274400       -4.42132115381082        3.24909762904791
H          116.73104225166945       -4.25393255500000        1.41629807008963
H          118.54507050631373       -2.36151980271070        0.80926409286133
C           75.14010649278221       -0.04393230078147       -0.01610770619097
C           76.35738795703162       -0.04228859438090       -0.01687249745024
C           86.06994129448827       -0.03005432933104       -0.07265034712401
C           87.28820048866662       -0.03398813204223       -0.08082377727683
C           96.99540883822446       -0.06900623711889       -0.08979906071792
C           98.21375259809814       -0.07645358178080       -0.08774273341031
C          107.91139718685702       -0.07296805946860        0.00386020755881
C          109.12822369923830       -0.05649521146982        0.02147167209960
C           77.76726306557138       -0.03964641497250       -0.02325740593985
C           78.39046772584078        0.91680120974613       -0.84726067411136
C           77.74374394771775        1.88742832482524       -1.65442461338403
C           78.70739207976264        2.59199097407830       -2.32219002916604
C           79.97277662537292        2.05941223937132       -1.95353934165694
N           79.73165907193695        1.06083851687074       -1.04949433617044
C           81.23062026411715        2.46591526772865       -2.41778420864256
C           81.23966026030526        3.54631575756424       -3.43257827588128
C           81.89255790526521        4.75363690674139       -3.16464241274097
C           81.90056802656773        5.77182248151555       -4.10034154115097
C           81.25422054864961        5.57939371135531       -5.31790038299259
N           81.25786361415403        6.64626549271750       -6.30446666700735
O           80.67703645692065        6.44811902891367       -7.34036407967495
O           81.84013125340908        7.66181643231647       -6.02390051013309
C           80.60362820463914        4.38349350353258       -5.60700389210851
C           80.59714333847498        3.37331639840512       -4.66229124736602
C           82.46055659929313        1.94384008097504       -2.01271758986132
C           83.73113165769992        2.32590429068889       -2.60313900164959
C           84.68004988976868        1.62219556817660       -1.95245332106272
N           82.65773249779662        1.00998734067037       -1.04238663644514
C           83.99018078639934        0.81289893350535       -0.96818094643561
C           84.66233363046072       -0.03011122562310       -0.06003448576873
C           84.03756361619730       -0.88267518828324        0.87132368816974
C           84.68069669766470       -1.69456731045451        1.84020907984641
C           83.71658806175920       -2.39318294677819        2.51343494934396
C           82.45401293579418       -2.02981838112948        1.97060075686740
N           82.69739728355606       -1.10247774994627        0.99373053534497
C           81.19719107577603       -2.50748067875050        2.36270341881567
C           81.19375139943750       -3.56688744486094        3.39966958099244
C           81.82892593284325       -4.78933767233742        3.16013520816491
C           81.82297135990542       -5.78497935836334        4.12006307675325
C           81.18131326301722       -5.55379381553688        5.33323352404711
N           81.17269679192931       -6.59615568024357        6.34584719549236
O           80.60034949881934       -6.36335161986760        7.37914298558445
O           81.73921267450226       -7.62663234368354        6.08851185488445
C           80.54750324685311       -4.34237516101205        5.59374775646936
C           80.55464747740851       -3.35523950032758        4.62513943045465
C           79.96532434354407       -2.07581212235683        1.86612335633160
C           78.68994578907621       -2.64426411007429        2.26568743578015
C           77.74059444766542       -1.95428112986840        1.60161876852852
C           78.43553142204219       -0.97734257660767        0.78741715146288
N           79.77070314217342       -1.08282123259242        0.95669815572370
H           76.67676804736539        2.02487428949899       -1.71410870609922
H           78.55493737138283        3.41204787761035       -3.00446517384652
H           80.45038297958723        0.50650538034907       -0.59622515358150
H           82.38148152082222        4.89475350165617       -2.20780767448416
H           82.39760142556482        6.71313695275406       -3.89888139217677
H           80.11352672442418        4.25672273470129       -6.56483818626835
H           80.10613943584869        2.43242091358337       -4.88194866913686
H           83.85728771791852        3.02092257044899       -3.41724238320598
H           85.74509237298830        1.62244743532373       -2.11632427011620
H           85.74442971371408       -1.72618163971556        2.00686904386389
H           83.86534756885862       -3.08832719618666        3.32334503034519
H           81.98018508111709       -0.64270629664199        0.44296116401251
H           82.31317627732473       -4.96218228477327        2.20603599404152
H           82.30560981045028       -6.73815937591053        3.94053354396259
H           80.05926568391627       -4.18614793554649        6.54816089975562
H           80.07508554282468       -2.40318025010031        4.82010054148577
H           78.55947067150295       -3.46625445165163        2.95041319332422
H           76.67097111209243       -2.07759951736836        1.64267826561882
C           88.69554679636049       -0.03837265132012       -0.08935710081509
C           89.33168695957234        1.00825251937222       -0.78562949147665
C           88.70468583626193        2.10680111315967       -1.42653947225376
C           89.67680501069952        2.84999190306984       -2.03861021982864
C           90.92756275296291        2.22131633267597       -1.79244041224874
N           90.67122203802322        1.12729337392423       -1.01136641247291
C           92.18593856638502        2.62109333728380       -2.26177607551355
C           92.20773438471117        3.77779851883096       -3.18654870640003
C           92.94743879920360        4.92083286710918       -2.86616348251631
C           92.97187413513149        6.00605735594532       -3.72279239236364
C           92.25451785117853        5.94671219134988       -4.91404914789719
N           92.27912973868776        7.08313874920724       -5.81952729859883
O           91.64534214801427        6.99570455423499       -6.83928152943445
O           92.93014692980566        8.04131131207387       -5.49208860788284
C           91.51441497415173        4.81802811789063       -5.25373132460595
C           91.49192547999246        3.74022951292209       -4.38743467158573
C           93.40578405014021        2.02529773211303       -1.93303129268970
C           94.67496730895709        2.39822086248084       -2.53184025223138
C           95.61637219264385        1.64252092567383       -1.92981841910235
N           93.59408147720235        1.03859181378611       -1.01494871934600
C           94.92298533044398        0.81021352101258       -0.96791805864242
C           95.58803206991684       -0.06760900779539       -0.08777470524884
C           94.95219546376917       -0.95284617059072        0.80532662036508
C           95.57941657396377       -1.79603156653479        1.75726462242159
C           94.60705501456248       -2.53870651939865        2.36970703706931
C           93.35597487496312       -2.17296632187355        1.80314559048777
N           93.61230581399727       -1.19450868118960        0.88133952147099
C           92.09737538294546       -2.70990375860613        2.10528868303197
C           92.07503699829928       -3.84389029857931        3.05768619246285
C           92.78930643515501       -5.01485104969066        2.78460452627255
C           92.76539751839113       -6.07622042382074        3.67092433186071
C           92.02573190993809       -5.96412528635504        4.84455078423729
N           92.00034545946619       -7.07508241731802        5.78109395780588
O           91.34845882492252       -6.94207808274042        6.78435521182133
O           92.63137419414777       -8.05921634288121        5.49397768915730
C           91.30984800675252       -4.80690584950775        5.13707362076863
C           91.33553126346889       -3.75364046145682        4.24149464660209
C           90.87732710473433       -2.26826526760145        1.58816369312266
C           89.60764321684212       -2.92745394946932        1.83669580961147
C           88.66600011983678       -2.18479191304010        1.21893896544936
C           89.35997241209373       -1.07735237017152        0.59382328396953
N           90.68919025911880       -1.17152980411824        0.80478106750146
H           87.64619827751426        2.30610644763411       -1.40864936880825
H           89.54061735803207        3.75999112048096       -2.59955513842721
H           91.37936837797582        0.49649057569691       -0.65126577374047
H           93.49152282723038        4.95914917673784       -1.92968778295865
H           93.53710422440852        6.89786369175408       -3.48010701074040
H           90.96892018523889        4.79509687372392       -6.18948919414814
H           90.93152015885951        2.85001844835999       -4.64850589203003
H           94.80503753320788        3.12303825928053       -3.31889744222626
H           96.67778051796786        1.62135024473599       -2.11443434504794
H           96.63807621541487       -1.81874265453856        1.95493278698813
H           94.74332065285424       -3.26546572921037        3.15365389173760
H           92.90399518425582       -0.71728232980575        0.33400235379444
H           93.34946557827389       -5.09648707989428        1.86035301465916
H           93.30954931456661       -6.98996871776328        3.46429497634158
H           90.74486596662237       -4.74360085173615        6.05929425605632
H           90.79253888099298       -2.84233032194945        4.46322264380595
H           89.47745887898111       -3.84372690012988        2.38918323573487
H           87.60431982147995       -2.36037664857294        1.16284819264708
C           99.62138380628033       -0.07954195918652       -0.08694802275420
C          100.25901689976889        0.98468777918509       -0.75460471336148
C           99.62980446662331        2.08884313788835       -1.38415243361671
C          100.60305504332361        2.85758402500154       -1.96129016905656
C          101.85750253748692        2.24117765897123       -1.70279403742882
N          101.60078614893941        1.12520427397997       -0.95301292858699
C          103.11923442728560        2.67887677496912       -2.12610167178936
C          103.13954031958967        3.85951510343977       -3.02086167677227
C          103.83060850729773        5.01750706830430       -2.65071340858153
C          103.85346653212875        6.11974696069345       -3.48577189565964
C          103.18370307278084        6.06228662668698       -4.70448410286046
N          103.20808547463656        7.21572331739335       -5.58824034279531
O          102.61757429535341        7.12789420610131       -6.63371045960791
O          103.81866985351193        8.18574271980298       -5.22055893853206
C          102.49118001112238        4.91918293123303       -5.09276235034471
C          102.46953245993016        3.82459138279252       -4.24796323339888
C          104.34165592037405        2.09721760800129       -1.78229890900357
C          105.62258495376238        2.52917281590803       -2.31348548703099
C          106.55944306715408        1.75957090156447       -1.72247874740757
N          104.51915078053605        1.06490232529014       -0.91428640449853
C          105.85006173805670        0.85468953410201       -0.83987434799610
C          106.50295685592826       -0.08480148026242       -0.01856542452473
C          105.86721986073820       -1.04486371932869        0.79091453761677
C          106.49859554834232       -1.96308767092879        1.66852748672283
C          105.52622690702076       -2.74012676972931        2.23667822127935
C          104.27174891142555       -2.32202624062563        1.71489338422888
N          104.52662309381226       -1.28448523997731        0.86018693061509
C          103.00889810571763       -2.85535766427615        2.00562724198438
C          102.98076961412544       -4.02804121507878        2.91026077666345
C          103.66556212743923       -5.20108178304531        2.57772351189926
C          103.64199478034367       -6.29354145457151        3.42558152098719
C          102.93168002914470       -6.21118727220523        4.61964328576581
N          102.91066740667053       -7.35313043722053        5.51802010781105
O          102.28232825521093       -7.24608710801109        6.53933032265623
O          103.52498391558827       -8.33377973983812        5.18593347776733
C          102.24265407083027       -5.05354375291681        4.96949999508243
C          102.26819737846461       -3.96880980949117        4.11239713769471
C          101.79006378720369       -2.37369092062460        1.52298496696928
C          100.51406963456628       -3.02443452447571        1.76161445591494
C           99.57757288152739       -2.25342829783750        1.17181229706711
C          100.28055929972220       -1.13633729169222        0.57387861802116
N          101.60941835829755       -1.25013987490734        0.77612327732327
H           98.56862976282230        2.27377459549601       -1.38336699169488
H          100.46550328014021        3.77741849372143       -2.50564174897426
H          102.31092170914216        0.49479650234431       -0.59606338813232
H          104.33802236172680        5.05389675665150       -1.69382116455347
H          104.38153092770229        7.02324108933716       -3.20545315110206
H          101.98168587921693        4.89829810449162       -6.04862386306969
H          101.94600231200407        2.92345205791435       -4.54554831013246
H          105.76359572128939        3.30202215677823       -3.05137643230195
H          107.62736291140281        1.77199068806288       -1.86779372983988
H          107.56043880510860       -2.01093234481376        1.84696830778791
H          105.66493021310646       -3.52447178335784        2.96256026801385
H          103.81576443345389       -0.76352798293580        0.35773917956101
H          104.20322220783932       -5.25887287540967        1.63844224863084
H          104.16462663536063       -7.20850564878698        3.17371750094355
H          101.69940077321750       -5.01408717474011        5.90598868578933
H          101.74708118529369       -3.05680083527823        4.37918862393814
H          100.37646802063475       -3.95428445543787        2.28905409710896
H           98.51345528899007       -2.41442760909820        1.11848434955198
