77
 energy: -120.818669664395 gnorm: 0.000307984640 xtb: 6.4.1 (bd6e46d)
Zn       -0.08865631611731    0.17073609334365    0.01345297435920
C        -3.48119493065525    0.63820097873916    0.08233357085199
C        -4.94570735503237    0.83853826685408    0.11852585788204
C        -5.58944270809469    1.53663097294284   -0.89889632152676
C        -6.95972691426421    1.72053676399467   -0.86422993714417
C        -7.70358468191732    1.21583547764358    0.18929973707622
C        -7.07053267957698    0.52241895054598    1.20733112779262
C        -5.70127330525879    0.33141746540369    1.17158176634574
C        -3.00827638937222   -0.67153474359114    0.01068498188372
C        -3.85000129787278   -1.82786366572351   -0.11848780586735
C        -3.03260629207105   -2.90660553962472   -0.13788610002033
C        -1.68963706238434   -2.41198303274213   -0.01816899240054
C        -0.55570596153174   -3.22233118010117    0.02704961276252
C        -0.75722077653842   -4.68700300382733    0.02953510369219
C        -0.25464294461507   -5.47108099385958   -1.00476605153731
C        -0.44713063272759   -6.84061250589047   -1.00324455673948
C        -1.13812221254384   -7.44552397836620    0.03340566633645
C        -1.63855467291334   -6.67322453161701    1.06836941974789
C        -1.45253144407128   -5.30283574206004    1.06610554489572
C         0.75492680140258   -2.74833603446068    0.07401409261169
C         1.91292885887457   -3.58658074391328    0.21073248004645
C         2.99145679908924   -2.76870522717773    0.20045685173652
C         2.49508759831102   -1.42896383855121    0.05524452701398
N         1.13533903551639   -1.44376456520396    0.00559772161240
C         3.30394273688403   -0.29580242226422   -0.02280204218398
C         4.76891703258101   -0.49496354606910   -0.03151072925788
C         5.37951666707552   -1.21240883347482   -1.05597297777512
C         6.75049393820083   -1.39413640306861   -1.06376924074232
C         7.52858132071683   -0.86733893971066   -0.04637921982289
C         6.92884641953953   -0.15450561677261    0.97841843033804
C         5.55877791102058    0.03371219484347    0.98528266679844
C         2.82849581185786    1.01316251875095   -0.09593052094205
C         3.66506003477242    2.16743169632441   -0.26974908901344
C         2.84706971558440    3.24584723982278   -0.27794054436969
N         1.52457142827029    1.39513936089450   -0.02302977742943
C         1.50901894841495    2.75339982048260   -0.10578318360698
C         0.37692015492456    3.56441660510954   -0.03562930850866
C         0.57558511580412    5.02896361803296   -0.07018409464247
C         1.30821655384199    5.66909337942196    0.92505245965675
C         1.49062570411773    7.03957508489982    0.88933260878916
C         0.94907561538193    7.78761964812768   -0.14271816656865
C         0.22027899824143    7.15846613532436   -1.13823077792754
C         0.03161863335651    5.78897335968050   -1.10166007436000
C        -0.93115920846609    3.09103655648091    0.06358877123106
C        -2.08421342353567    3.93121430083329    0.22783228467932
C        -3.16222142723746    3.11339214948954    0.26424074585430
C        -2.67038410824922    1.77192082158833    0.12007400086946
N        -1.31307895802137    1.78582448571776    0.02546643765097
N        -1.70255166021162   -1.05273450294088    0.04516989311529
H        -5.00833481467014    1.92400837883382   -1.72325997823353
H        -7.44931989232292    2.25951280098096   -1.66230372897725
H        -8.77325567600140    1.36229960644911    0.21681427736635
H        -7.64601106654288    0.12900392811032    2.03265388540506
H        -5.20477257017452   -0.20396567755951    1.96794043993062
H        -4.91908739797539   -1.80770398300090   -0.20217795041697
H        -3.30434148354176   -3.93898195058982   -0.24101235923606
H         0.27808001972961   -4.99673686150636   -1.81628819492304
H        -0.05700059672748   -7.43840839543757   -1.81416254272372
H        -1.28607550070301   -8.51534063014684    0.03480391222712
H        -2.17570948324318   -7.14063997202197    1.88085671878337
H        -1.83601270501808   -4.69966438055400    1.87633939311510
H         1.89443767879478   -4.65343759691603    0.31919126849031
H         4.02492455706834   -3.03791644299447    0.29907079284084
H         4.77192727337036   -1.61626507960597   -1.85288905619025
H         7.21388959023948   -1.94841228809363   -1.86700356760639
H         8.59887338170252   -1.01166828275805   -0.05222158084826
H         7.53111998829789    0.25626843279780    1.77571512011554
H         5.08849030166586    0.58385600021613    1.78748901189010
H         4.73073455077107    2.14620369437354   -0.38899550907372
H         3.11509920012336    4.27645983556340   -0.40547859563363
H         1.72373385909651    5.08521198964247    1.73361385042622
H         2.05730017599319    7.52610614926867    1.66991790576829
H         1.09437698876691    8.85742625857354   -0.17108037112588
H        -0.20240989194342    7.73713866277327   -1.94668889018993
H        -0.53068063352061    5.29546988032036   -1.88115390040983
H        -2.06240228901746    4.99933264507149    0.32222639878508
H        -4.19202603471836    3.38365392392976    0.39336042720187
