324
 energy: -539.674126016171 gnorm: 0.000810860232 xtb: 6.5.1 (b24c23e)
C           43.98832557459457        0.05344888673962        0.05958013511920
C           44.60118579516727        1.22851813725742        0.47484266309189
C           43.95308096546806        2.41286389356842        0.92492678543936
C           44.91785919891915        3.33361294381059        1.22334025486695
C           46.18684133091283        2.74484075608156        0.95683134190690
N           45.94473031195013        1.47335386521043        0.51878276887118
C           47.45080632349958        3.32236774847694        1.12086620387576
C           47.48846928203723        4.73456084743905        1.57397655515819
C           46.93865301004733        5.72031552540311        0.84886023958217
C           46.95121509866635        7.15918809439741        1.29543759924546
N           47.92282840051544        7.37268538708273        2.37121637880188
C           48.30796638993110        6.33768649107518        3.18225199561430
C           48.15347159004846        5.04896990278684        2.83012810525944
C           48.66335269932729        2.66845432222766        0.88947715159207
C           49.96266589854348        3.30151356313364        1.02607353751901
C           50.88067994859283        2.36156037776739        0.72033669831262
N           48.81383020570944        1.37507097538076        0.49106629315696
C           50.14082912303506        1.15906924246564        0.38843624401287
C           50.77389100687915       -0.04539139651543        0.02056899604832
C           50.13481239130639       -1.24097009427315       -0.35969966673022
C           50.77578957522800       -2.45723425766424       -0.71519914473773
C           49.80620145532301       -3.36791112571229       -1.03227702394773
C           48.54212997060508       -2.73287308535030       -0.88588290730082
N           48.79300663317533       -1.45083476140432       -0.47168199129497
C           47.27932624500022       -3.29890601210849       -1.09203750572355
C           47.24804492315716       -4.70521266786733       -1.56037154430917
C           46.65908525118501       -5.67340816125869       -0.84234898304899
C           46.60060706336232       -7.10490482772801       -1.30764617263947
N           47.56457371248152       -7.35306948236938       -2.38319842285189
C           47.99016066307878       -6.32814036788436       -3.18751825406609
C           47.89406054909201       -5.03739774228992       -2.82262321685256
C           46.06511157241315       -2.63493377923784       -0.88688877957250
C           44.75837037813018       -3.21379019102703       -1.15707353477355
C           43.84798569741547       -2.27570567187716       -0.82589393275401
C           44.59733370060878       -1.11954718630813       -0.36782980476540
N           45.92844215615649       -1.36823960639567       -0.42686734103530
H           42.90293536413970        0.06319445826301        0.06927951665232
H           42.88442792061190        2.53019187172321        1.01030227198110
H           44.77028427614381        4.33131442137844        1.60377656869837
H           46.66806757969412        0.80890840029125        0.26471745587750
H           46.44524570487045        5.52698035076989       -0.09663230659657
H           45.94178268518947        7.46375900066884        1.63027023033064
H           47.22469490932634        7.81314065787923        0.45615106196843
H           47.85953063769954        8.28209808107587        2.80517050938863
H           48.82073413439906        6.63852015592005        4.09027294600198
H           48.50832281266901        4.24596006730715        3.46025623431417
H           50.12699941129917        4.32842932527309        1.30983116180369
H           51.95530493460434        2.44956989767495        0.70565176128720
H           51.84337837472443       -2.60748672987037       -0.72042979707581
H           49.94982293552459       -4.39214328943853       -1.33570929937709
H           48.07309338836295       -0.76507048027726       -0.26902919691630
H           46.18002720936317       -5.46809418975922        0.10781045193822
H           45.57838275480598       -7.35326353516305       -1.64968296086264
H           46.83786220110814       -7.78280118102434       -0.47662938735035
H           47.45593442645048       -8.25310486710130       -2.82793945502027
H           48.48554039581880       -6.64242084572944       -4.10067471026221
H           48.27852306740334       -4.24509673139162       -3.44916715375020
H           44.58572426052771       -4.19938058489157       -1.55849974365862
H           42.77194923798121       -2.32785594094646       -0.88532119065431
C          125.14195267694706       -0.08764334956696        0.04110749664976
C          124.52889005164087       -1.30271601791213       -0.23565092801869
C          125.17592981399932       -2.54982202176657       -0.46225005568684
C          124.21153336087217       -3.48597550451327       -0.70959032879920
C          122.94405971467862       -2.83929266173732       -0.65183745002213
N          123.18632841546183       -1.52821949765799       -0.35248020943380
C          121.68087936296688       -3.41074802511742       -0.84126337985603
C          121.64297267524071       -4.85101204481816       -1.19502932026248
C          122.21496240450406       -5.31548911931324       -2.31614169654830
C          122.20272458722478       -6.77563111795886       -2.68741836327015
N          121.20873442401886       -7.51419846731642       -1.90422495729694
C          120.79909051675691       -7.05363968215738       -0.68050635711498
C          120.95287010641367       -5.77190733982282       -0.30351236391315
C          120.46899606778776       -2.72627364956778       -0.72142050598435
C          119.17167502478333       -3.32958522940380       -0.96763548774442
C          118.25367561439083       -2.36467261540719       -0.75318202857417
N          120.31777875735995       -1.41609449601021       -0.38273662488021
C          118.99171708237142       -1.17166283466957       -0.38502816452707
C          118.35792231657278        0.04787563764386       -0.07219271252505
C          118.99630954297697        1.26008442782915        0.25246206327043
C          118.35425330801172        2.48245943742928        0.58424659090429
C          119.32370665932480        3.41813083813838        0.81797378622087
C          120.58889000785554        2.79651445685198        0.62959826819208
N          120.33858964452219        1.49130192465580        0.29508321336937
C          121.85170425447436        3.37995820833769        0.77931665782674
C          121.88298111549263        4.81992051149838        1.13072602239648
C          122.45325112096080        5.25532842028971        2.26433392048377
C          122.51120982827561        6.71468917180315        2.63306717317566
N          121.56573806991155        7.50134438319920        1.83625698324051
C          121.16071987017203        7.06299606282241        0.60244807766490
C          121.25772581412167        5.77539582406711        0.22682277086398
C          123.06603492091006        2.70304153281005        0.62292747543997
C          124.37378216619189        3.33178598589554        0.72346290871887
C          125.28383850105166        2.35705489696239        0.52300501950403
C          124.53354753108532        1.13675403628692        0.28639642036144
N          123.20220214691302        1.38447228298656        0.34436406672573
H          126.22704207455831       -0.10561117323305        0.06389818482083
H          126.24353270835354       -2.69921160240804       -0.43089103829044
H          124.35832556877783       -4.53554902312657       -0.90646311117874
H          122.46366328112781       -0.82620766138495       -0.23334899426738
H          122.72727710644124       -4.65930443460797       -3.01020900756536
H          123.20655347254821       -7.21588793428532       -2.53791405871515
H          121.95290581839791       -6.89331863973885       -3.75069216347365
H          121.26854610525210       -8.51667203577333       -2.00831963317024
H          120.26842040508726       -7.78171367167612       -0.07533634411776
H          120.57891907899507       -5.41464568376432        0.64534904612809
H          119.00879305054110       -4.35111603769407       -1.27100072546845
H          117.18030459048468       -2.42605076270306       -0.83612854556100
H          117.28599438090227        2.61746085438934        0.63854029966519
H          119.17914450345124        4.44785972104960        1.10170854106821
H          121.05901352517577        0.79917725577703        0.11739099516682
H          122.91655884442494        4.57396534812574        2.96828773557139
H          123.53797403312024        7.10240629776666        2.49512687424773
H          122.25433222193918        6.84760450349179        3.69268897157443
H          121.67710284945056        8.49955387596871        1.94031330856342
H          120.68012907344027        7.81704918000714       -0.01274767195783
H          120.88931678097141        5.43938391384403       -0.73207165081310
H          124.54742773167462        4.37966089596414        0.90825833225951
H          126.36040491300028        2.42839319453500        0.51900248577281
C           52.17988760119004       -0.06713628688171        0.02652072948923
C           53.40427724801575       -0.08736795963597        0.03813320313209
C           54.74728468601350       -0.10011463576635        0.04637756671934
C           55.97788187653922       -0.10895689127143        0.05561597543376
C           57.31623274810897       -0.11573082451723        0.06253921518289
C           58.54700284049523       -0.11786828643695        0.06824807103640
C           59.88990423788760       -0.11507250310928        0.07048870671649
C           61.11481853912343       -0.10624116123199        0.06707767530144
C           70.79282356223958        0.00460717813062        0.00072864541131
C           72.01824329541809        0.00521798842983       -0.00422282189664
C           73.35982092917926        0.00073227864825       -0.00747937952138
C           74.59130778798151       -0.00063472527636       -0.00793469179815
C           75.92824354385158       -0.00116448032187       -0.00244910092470
C           77.15978351766070       -0.00610887739707        0.00215540329422
C           78.50135993358559       -0.00963482436600        0.00433095083824
C           79.72684501751249       -0.01369218319209        0.00286276780498
C           89.40527850976403       -0.00382028467610       -0.00875324604101
C           90.63074332424269       -0.00991043558769       -0.00966749642179
C           91.97229537314269       -0.01433205256351       -0.00577711410460
C           93.20378097996206       -0.01814139664804        0.00014096572078
C           94.54070173007651       -0.02228625597252        0.00516579160712
C           95.77216805468315       -0.02528747773108        0.00892579494064
C           97.11375589584418       -0.02687598173134        0.00971330904671
C           98.33920843344970       -0.02436159020059        0.00633555321987
C          108.01700986552821        0.08880608592197       -0.04160229595876
C          109.24178506501819        0.09680333427904       -0.05218392336219
C          110.58465343573921        0.10074710196737       -0.06071257950619
C          111.81537668749075        0.10385776792702       -0.06639529380791
C          113.15367551557090        0.10077726289543       -0.07428336167034
C          114.38430586130690        0.09467589455097       -0.07947111555668
C          115.72738006399914        0.08478958965172       -0.07918852443305
C          116.95190323645767        0.06925888559644       -0.07949475850784
C           62.51982617024822       -0.10104741837496        0.05807810707221
C           63.15641208480508       -0.30422761651918        1.29777931049227
C           62.51841390108123       -0.48861473682788        2.55157880767176
C           63.49232402447215       -0.62488979877762        3.50294317116633
C           64.75426540501633       -0.53647472356730        2.85493977635816
N           64.49987645541152       -0.33894479200786        1.52360940841339
C           66.01851785843299       -0.60803852558064        3.45100019650266
C           66.05088009068625       -0.84318724934434        4.91645627292736
C           65.57451076520201       -1.97327320942039        5.45984602470614
C           65.65058689251215       -2.25203501698815        6.93808233376873
N           65.90547588857073       -1.02397698866318        7.69545098259689
C           66.53585586990502        0.04161746247900        7.10834406268740
C           66.61222041403698        0.19014010036686        5.77389310647108
C           67.23824028737700       -0.47760898446066        2.78600339847343
C           68.52806772139908       -0.62078910570169        3.43670824071833
C           69.46173582557053       -0.45303038718758        2.47731036755036
N           67.40966710285493       -0.23723467794249        1.45641263797332
C           68.74041827635146       -0.21243988134247        1.24320306373461
C           69.38932655909113        0.00422329389392        0.01015150453582
C           68.75209189414497        0.21527989358915       -1.22850032197826
C           69.38960835874646        0.40567686278787       -2.48146701565196
C           68.41526718982804        0.55378226302211       -3.43071712731921
C           67.15364436914730        0.46574079435800       -2.78208527421559
N           67.40877704871349        0.25720488468560       -1.45239039149775
C           65.88947870181703        0.54409657214646       -3.37712132536644
C           65.85857324821404        0.79717085154826       -4.83957769004971
C           66.33602639158578        1.93451264413040       -5.36680242978324
C           66.26302588664655        2.23284044927578       -6.84130913756002
N           66.01411578057193        1.01392336915120       -7.61521226794672
C           65.38174296014303       -0.05935693840624       -7.04428133663838
C           65.30007759127247       -0.22492786285163       -5.71212183016188
C           64.66956240636418        0.40474717970726       -2.71369830623959
C           63.37935911083261        0.54637844828688       -3.36419675006602
C           62.44596898313312        0.36571785703712       -2.40695170192873
C           63.16759991368140        0.12092172887163       -1.17377809720705
N           64.49887921377270        0.15395283728028       -1.38642658571608
H           61.45054340217543       -0.50557041326346        2.69869486166085
H           63.35275318018071       -0.76532522301786        4.56235158562516
H           65.21366411849704       -0.22535009854956        0.81163763993124
H           65.17875459692681       -2.77718164441496        4.85009011153110
H           66.44069617112301       -2.99791123039957        7.14623506986143
H           64.70186928997852       -2.67822601265751        7.29145037698636
H           66.10845003481460       -1.18084288345067        8.67207770641683
H           66.89240769167917        0.79647532635493        7.80185936433589
H           67.04567843839196        1.07454830119802        5.32922773567072
H           68.67585094802311       -0.83463820730616        4.48304844228227
H           70.53559985955296       -0.48972013693445        2.56811997062732
H           70.45737758899794        0.41879930692341       -2.62966751705991
H           68.55433522196934        0.70142519821436       -4.48920766261976
H           66.69532196958248        0.14218006620508       -0.74030623093187
H           66.73058816513512        2.73004114486409       -4.74539432316711
H           65.47117685611425        2.97898406673386       -7.04181869496258
H           67.21140816536463        2.66646688752690       -7.18636813446332
H           65.81514026454903        1.18283163275553       -8.59067515703878
H           65.02866865603899       -0.80559577017582       -7.74881064155737
H           64.86555937038412       -1.11528773923141       -5.28057618285157
H           63.23106856716287        0.76723525754952       -4.40900750154257
H           61.37198841089798        0.39707077471008       -2.49832086422524
C           81.13025476716534       -0.02354047582753        0.00163594490782
C           81.75831917273287       -0.23799914159539        1.24459339442396
C           81.11162338744973       -0.41832652408919        2.49421810111220
C           82.07895618779308       -0.57074579349607        3.45009881757056
C           83.34503616856196       -0.49624333132642        2.80887111450187
N           83.09985510623788       -0.29042919287811        1.47689767867804
C           84.60521318102269       -0.58564929366838        3.41140189264765
C           84.62574513446503       -0.82921911398047        4.87561565006597
C           84.13082151610907       -1.95601910748493        5.40928963307519
C           84.19312987031958       -2.24400994647909        6.88635972060048
N           84.45701399418761       -1.02318572457135        7.65225067035218
C           85.10594062979644        0.03713148005080        7.07583064485047
C           85.19455557878061        0.19176297324800        5.74282348851111
C           85.83011710663729       -0.46529158838044        2.75408697638955
C           87.11468481955865       -0.62379659793357        3.41147925412437
C           88.05552925779563       -0.45983142283796        2.45841302626915
N           86.01158074780520       -0.22071204278014        1.42653209678040
C           87.34377338592937       -0.20719783225242        1.22125985271421
C           88.00186923226313        0.00717790045753       -0.00731473067379
C           87.37378029274008        0.22306350639014       -1.24999526723545
C           88.02040680976148        0.40471083337001       -2.49945365904919
C           87.05302176416096        0.55910226199870       -3.45496669048108
C           85.78699968569764        0.48448916419449       -2.81364111424550
N           86.03224104961424        0.27670691216925       -1.48199833702093
C           84.52683249646458        0.57500280302635       -3.41602577739205
C           84.50653108280397        0.82193168905879       -4.87969694531495
C           85.00095611368899        1.95043189352857       -5.41024103272111
C           84.93887957842084        2.24238395300262       -6.88653410074546
N           84.67565285924611        1.02351731232703       -7.65576103289427
C           84.02739489482050       -0.03880266180309       -7.08231841268125
C           83.93862048398186       -0.19711497577599       -5.74974146090672
C           83.30191551801326        0.45303362762636       -2.75909412134385
C           82.01729759254772        0.61105184761187       -3.41652469939262
C           81.07648030636581        0.44508481833247       -2.46377205786234
C           81.78831006779023        0.19179716136469       -1.22678115102773
N           83.12050233184054        0.20691126377751       -1.43180844913119
H           80.04292088935256       -0.42192855823711        2.63603771636952
H           81.93201469936730       -0.71300547030868        4.50825639242666
H           83.81860547042882       -0.18382123292640        0.76883819801344
H           83.72857781576369       -2.75107992514602        4.79222589255933
H           84.97284669352946       -3.00034982791993        7.09593246182330
H           83.23691784184059       -2.66081872978659        7.23055906981998
H           84.64999727941934       -1.18764987879253        8.62965512447884
H           85.46684570164102        0.78358565956553        7.77614517105158
H           85.64285086393296        1.07283260513541        5.30633257904860
H           87.25441277410654       -0.84406528855976        4.45759158557868
H           89.12846196212053       -0.50682597445039        2.55530531122122
H           89.08909161331884        0.40779250773435       -2.64141758181170
H           87.19986093583643        0.70271389468767       -4.51295643822644
H           85.31353453111730        0.16974788493469       -0.77394643594356
H           85.40261303035429        2.74403554099654       -4.79092115873752
H           84.15889652248620        2.99896923043121       -7.09423752731552
H           85.89500128905402        2.66052588897538       -7.22938677831191
H           84.48279902962459        1.19049185176755       -8.63276214189494
H           83.66713838773570       -0.78360302421803       -7.78472735777850
H           83.49089220624636       -1.07970231812355       -5.31574356671645
H           81.87749398800831        0.83222433391981       -4.46243598877492
H           80.00350925301311        0.49107055890163       -2.56076294052579
C           99.74273838754888       -0.02427161254741       -0.00019385754053
C          100.37750645986121       -0.23399213138090        1.23997304015881
C           99.73732067218569       -0.42296098271065        2.49180428988406
C          100.70960754855625       -0.56933976836001        3.44341366804922
C          101.97266403765572       -0.48176041025294        2.79747628969477
N          101.72035431646378       -0.27507361918099        1.46692875974069
C          103.23557644399962       -0.55944209227510        3.39533308773200
C          103.26318012747424       -0.80988681917903        4.85829559424853
C          102.78279962271446       -1.94536962865552        5.38690989030064
C          102.85161417719705       -2.24042416699906        6.86228348982438
N          103.10000144215658       -1.02003806634651        7.63401378330807
C          103.73560877027234        0.05092469744787        7.06230620230986
C          103.82109812773956        0.21326931900716        5.72999210233425
C          104.45693210139733       -0.42150980441102        2.73414545915148
C          105.74587055479815       -0.56384989793067        3.38705143497913
C          106.68116106476127       -0.38466436321748        2.43134753901800
N          104.63024009580541       -0.17174675501526        1.40705225373956
C          105.96196216689712       -0.13987102372161        1.19679235887794
C          106.61197774194291        0.08232870847480       -0.03372495999731
C          105.97767198839659        0.28738895659847       -1.27438686668750
C          106.61822714752610        0.47381427354079       -2.52658576094242
C          105.64629281436346        0.61184029116229       -3.47968963891050
C          104.38305461484786        0.52248385016709       -2.83440013582095
N          104.63468178228732        0.32267557405905       -1.50288690042834
C          103.12011688815511        0.59462075145809       -3.43318568875198
C          103.09146233154503        0.83311233657438       -4.89817060643264
C          103.56889630108348        1.96478436552630       -5.43734287968946
C          103.49748964418573        2.24693755632245       -6.91515707576023
N          103.24661496036202        1.02027790815164       -7.67610345904156
C          102.61483172706774       -0.04705721706095       -7.09368419816237
C          102.53364761461930       -0.19856924318558       -5.75984398499455
C          101.89906124958858        0.46187128474104       -2.77119241532894
C          100.61046651560993        0.60406603769525       -3.42451165151985
C           99.67496992254883        0.43401164334555       -2.46729804852243
C          100.39397424792043        0.19318582759665       -1.23187547951199
N          101.72511245993157        0.21976609368471       -1.44222357336738
H           98.66923588292819       -0.43632996347216        2.63767753479665
H          100.56815650918720       -0.71550512262667        4.50179199021693
H          102.43535872197161       -0.16050188584478        0.75633460869412
H          102.38855653196835       -2.74171760593114        4.76635122063839
H          103.64196735291362       -2.98710594093579        7.06662412285739
H          101.90177089584834       -2.67203437489275        7.20583798482942
H          103.29599838379644       -1.18692060716200        8.61042858675600
H          104.08792521479251        0.79825984299540        7.76604761175111
H          104.25813493480651        1.10196849126262        5.29756828739760
H          105.89204146937644       -0.78427395304076        4.43225727986968
H          107.75497899083034       -0.41696151065193        2.52445902528739
H          107.68636468575153        0.49080819624589       -2.67163517404333
H          105.78807521818575        0.75397395327929       -4.53857072708367
H          103.91939192042570        0.20818971324617       -0.79256901631634
H          103.96236937645308        2.76738761063878       -4.82439481095963
H          102.70725047754105        2.99239760797009       -7.12432037990229
H          104.44693499921777        2.67498612996364       -7.26429937096795
H          103.04741203237194        1.17900162639425       -8.65320244438474
H          102.26145864556199       -0.80067212182218       -7.79016958570812
H          102.09928728848739       -1.08430481570898       -5.31872163255820
H          100.46467105344783        0.81873183418240       -4.47096414590146
H           98.60125307759230        0.46929862246346       -2.56038379178712
