219
 energy: -355.713830123480 gnorm: 0.000893333969 xtb: 6.5.1 (b24c23e)
Ni          25.85924661507016        0.06823580999142       -0.20039954633883
C           22.51052768021178        0.25968694655949       -0.70824874033651
C           23.15161479172082        1.37015996249120       -0.19931077308063
C           22.47096940166199        2.57254799466345        0.17300780341408
C           23.41435974168534        3.42447423431823        0.63831188124326
C           24.67539062418916        2.75307287924358        0.51892001785347
N           24.49930220196487        1.48082166051389        0.03325699946592
C           25.89846345076521        3.34649906004771        0.80183846538968
C           27.10825831599922        2.68836467188868        0.62621375565566
C           28.38265524919990        3.32268994344190        0.77607642260191
C           29.32158180371126        2.38252443167638        0.51256907279606
N           27.26669477929790        1.37048807864241        0.26123184727733
C           28.61947452025970        1.17499546200204        0.21498458263252
C           29.26330308021224       -0.04505548098854       -0.01033441231275
C           28.56571242061654       -1.23794219263747       -0.22178872609268
C           29.21088454628899       -2.50542499059583       -0.35134825364593
C           28.23358652839674       -3.41874243883552       -0.56468050813438
C           26.99387416027012       -2.70291085265059       -0.57778881244359
C           25.77663407060401       -3.28637330813656       -0.89932327119169
C           25.74243529182220       -4.74504800657154       -1.17442518355587
C           25.46219578830696       -5.21164019341223       -2.45667065564778
C           25.43635848947151       -6.57785961883012       -2.72064653605585
C           25.11860117781464       -7.07397752902156       -4.10541920316444
C           25.68768685065546       -7.47557861260060       -1.68875172825120
C           25.96872050282325       -7.02366492551933       -0.40168596182747
C           26.25293828520440       -8.01150660365017        0.69736108394969
C           25.99827262680243       -5.65682561760598       -0.15102229039906
C           24.60096131061295       -2.55634150176066       -1.01440646373895
C           23.34310699709613       -3.12401280739975       -1.40250198397346
C           22.43641635148872       -2.11928794466387       -1.38382595344463
C           23.13442188680538       -0.94488240185668       -0.95773012210859
N           24.46296463452086       -1.21716666885063       -0.74660585094997
N           27.21030012066592       -1.36199228726833       -0.34912964087973
C           25.92558100034584        4.75489962397214        1.26759378933509
C           25.45637625746769        5.77959507577652        0.44697845933579
C           25.49379790780882        7.10137445257952        0.87758821097040
C           25.01312416167830        8.20866821925753       -0.02102675815245
C           26.00321963753336        7.39355824826506        2.13948387084701
C           26.47552170925413        6.38166756539516        2.96980238641268
C           27.00611904211903        6.70747504251507        4.33974822487864
C           26.43567869199403        5.06357415135324        2.52757786546908
H           21.44283813468831        0.32479567045543       -0.88291956530772
H           21.40560128462430        2.72048962590771        0.09439955486878
H           23.28206500148466        4.42095742261767        1.02734095055069
H           28.52871895912676        4.35871196162724        1.03452245617072
H           30.39512805962049        2.48018697818050        0.52321506196897
H           30.27573181644812       -2.65990559546253       -0.28438240011371
H           28.33338914907750       -4.48035922759370       -0.72125323838946
H           25.28052093308737       -4.50123890099619       -3.25574054844888
H           25.54468807581740       -8.06339509557525       -4.27197613883736
H           24.03611789058136       -7.14269161022611       -4.23556120590091
H           25.50698403454206       -6.39008037041220       -4.86053297451471
H           25.66690905298719       -8.54212850614713       -1.88805352426458
H           26.22914851729531       -7.52773149771714        1.67363913870464
H           25.51964639698141       -8.81900029558825        0.68651802986894
H           27.24183133764501       -8.45286940280344        0.55571199363366
H           26.20824831038650       -5.29067863764565        0.84794236452262
H           23.18632113849135       -4.16130295057766       -1.64999443910421
H           21.38330891931486       -2.15445305460744       -1.61357633946058
H           25.07764989175041        5.54108475613028       -0.54087447830651
H           24.54855078681325        9.00532290256043        0.56068865077079
H           24.29198780867459        7.83511244803612       -0.74808804448808
H           25.85732208358115        8.63624171315540       -0.56683951485649
H           26.03463930874517        8.42385609023230        2.47884620768089
H           26.18832864746203        6.70846000403400        5.06403914010356
H           27.47014994043089        7.69397783860101        4.35145714620541
H           27.74058949903059        5.96747446668013        4.65808181770619
H           26.79236010732169        4.26455054792928        3.16830180152929
Ni          62.96723918480483        0.13645259541607       -0.11361323924877
C           66.31156655042770        0.57904916995999       -0.46915214212563
C           65.66361764338869       -0.21899188134948       -1.38908850870125
C           66.33613016448004       -0.90730586894959       -2.44810305920844
C           65.38810908635202       -1.59249883620846       -3.12915144060937
C           64.13209227923510       -1.29612073531915       -2.50460296018958
N           64.31628801006021       -0.47703058744798       -1.41802723963216
C           62.90620104651705       -1.73859094494066       -2.98389302642201
C           61.70088273510837       -1.39546875574370       -2.38653639061372
C           60.42201063800820       -1.72538731335219       -2.93859368694943
C           59.48950155027480       -1.21304974305128       -2.10030576801416
N           61.55147456975082       -0.67627028115226       -1.22231336147446
C           60.20008473625033       -0.58293471338891       -1.03356592506366
C           59.56562703396143       -0.02157214424760        0.07771205354340
C           60.27084445134088        0.52001875739841        1.15577053475332
C           59.63437553586066        1.00016880480539        2.34074472514344
C           60.61752976625851        1.46172716517395        3.14992781414819
C           61.85215341856711        1.27403706745557        2.44972401694468
C           63.07242786059734        1.74807512915126        2.91022689897006
C           63.11382074987439        2.42449331741659        4.23124631041092
C           63.39437210455044        3.78644391389319        4.31371630231912
C           63.42167471058255        4.42809640795299        5.54839365388864
C           63.73863649668603        5.89699281561049        5.62950384872350
C           63.17120196698758        3.69429807784729        6.70280027107580
C           62.89047999043994        2.33175701967359        6.63592008234937
C           62.60557869655021        1.55938897761314        7.89560197806466
C           62.86010112824352        1.70257144692238        5.39689441121932
C           64.24219848586949        1.65512818616673        2.16784788029655
C           65.50302672931844        2.18797377162968        2.59390252224830
C           66.40201776807741        1.89034594582297        1.62690365623724
C           65.69644367213594        1.15234365423333        0.62413243107439
N           64.37090922502395        1.02358076848615        0.95585713766389
N           61.62703206346274        0.67793525851344        1.22881731171392
C           62.87376366379863       -2.57207048652081       -4.21094537218146
C           63.33169916988968       -2.05797962585108       -5.42331436969484
C           63.29711325326415       -2.83353587912425       -6.57699335891977
C           63.76907588814275       -2.26728493820373       -7.88895456289458
C           62.80065785425428       -4.13215782845280       -6.51095920274502
C           62.33819285224830       -4.65858913399546       -5.30871791417550
C           61.82262073716529       -6.07093788268712       -5.24561680676644
C           62.37569983198829       -3.87294273210481       -4.16146634722732
H           67.37786984197876        0.73097442281435       -0.59010234077945
H           67.39975332543871       -0.86969615454586       -2.62231839670870
H           65.51425448550002       -2.24173452386549       -3.98024755945973
H           60.26873821866216       -2.26655141199486       -3.85790800615174
H           58.41521364325063       -1.25687794160007       -2.17889561913097
H           58.57088094027374        0.97855955637360        2.51608203572080
H           60.52464569817305        1.90959160818813        4.12576753883564
H           63.57418356373555        4.35075314861079        3.40519002092351
H           63.31280253552794        6.33814882281203        6.53077728171760
H           64.82104119433276        6.04202446392753        5.65760980198991
H           63.34933403748933        6.42582572780872        4.75912641162223
H           63.19199115716871        4.18896647714032        7.66848623145661
H           62.63267058968055        0.48573296027416        7.71050816154861
H           63.33613169220057        1.80218597350597        8.66838046894918
H           61.61492930927266        1.81833465443107        8.27559429014121
H           62.65015612253101        0.64068477760952        5.33038450168543
H           65.66688010434773        2.71568453255056        3.51936972566316
H           67.45451590203729        2.12220966205482        1.58747112477899
H           63.70086376483826       -1.03909113836823       -5.46519007625214
H           64.23888863306954       -3.04032091233835       -8.49769892459831
H           64.48373245809225       -1.45970040241804       -7.72985717549910
H           62.92001866559659       -1.86616365657431       -8.44712682167900
H           62.77227188520963       -4.74089609200919       -7.40889965808916
H           62.64829909819581       -6.75896105768924       -5.04994616924017
H           61.35964518527835       -6.35745080757149       -6.19018537115943
H           61.09105829773138       -6.18229015828869       -4.44512709454390
H           62.02789858357881       -4.27495457475349       -3.21615916052529
C           30.66692371950301       -0.07800642915488        0.00812541328702
C           31.89101108902667       -0.09721537023656        0.01078714521156
C           33.23364115670548       -0.10904265033168        0.01631208997129
C           34.46408906049458       -0.11233519206196        0.00893606316896
C           35.80192041515529       -0.10680022986491        0.00486564008356
C           37.03234601216305       -0.09792397599277       -0.00743861336534
C           38.37477195120786       -0.09049932443075       -0.01752751238323
C           39.59908364829878       -0.07682067775208       -0.02631188630270
C           49.23004847646133       -0.02658505913396        0.13867745623234
C           50.45367001967544       -0.01959963383284        0.17120730296101
C           51.79658898953390       -0.01604353184184        0.19216900145360
C           53.02666636335640       -0.02013197224971        0.20301431914516
C           54.36511901012513       -0.01855174156735        0.20021475000816
C           55.59510027642332       -0.02547651707977        0.18698565290704
C           56.93814408707015       -0.02730880165690        0.16036321436845
C           58.16157628240729       -0.03124260848208        0.12717965709386
Ni          44.41545823697204       -0.05596831910804       -0.00193916353804
C           41.00233626683990       -0.06922462301600       -0.03075645681554
C           41.67067343984658        1.15872674059170        0.00131364133719
C           40.99833963290457        2.41704876666459        0.05916522721360
C           41.95066469417789        3.37275578381228       -0.07037019849372
C           43.20164319682896        2.69287218656557       -0.21143109601154
N           43.02144857301333        1.33099650232092       -0.12333420453626
C           44.40728796631422        3.33274977751193       -0.46619314669938
C           45.61777705670415        2.65571429312725       -0.52562402633218
C           46.87018123554903        3.28169396011234       -0.82066515849843
C           47.82824438337961        2.33767769794720       -0.65378551860917
N           45.80348526968965        1.32338983219188       -0.23203327747267
C           47.15739446421370        1.13670498245346       -0.27105632084367
C           47.82670142986375       -0.03483206131262        0.09566201037471
C           47.15157736811646       -1.21806884296077        0.40988727504996
C           47.81483958779569       -2.41812396765338        0.80852266609938
C           46.86311165674562       -3.37966251461057        0.88913730554726
C           45.62200230078095       -2.76319812970307        0.53287151320239
C           44.42438824666456       -3.45281849624827        0.39841380139836
C           44.43074007121067       -4.92578672572535        0.57007880553719
C           43.69761254373723       -5.51651055476610        1.59765751149335
C           43.70444271167895       -6.89740970125660        1.76607805574752
C           42.93474743334161       -7.52540413418006        2.89639172392588
C           44.44564660736267       -7.68687767355205        0.89257326645721
C           45.17840323969016       -7.11174960058344       -0.14205135021260
C           45.98495960235622       -7.97690671610149       -1.07232535762396
C           45.17185310253105       -5.72986281201483       -0.29502186506656
C           43.22145811615334       -2.81835345331143        0.11974465687085
C           41.97901581326840       -3.50451587285524       -0.06143458119744
C           41.01977701856958       -2.55345633932396       -0.17271899993798
C           41.68059778012432       -1.29170947716865       -0.07311904305599
N           43.03090324867350       -1.45589623279350        0.06408841562852
N           45.80543857085356       -1.42228790200670        0.28206442802412
C           44.40096947909348        4.80088559363139       -0.67665904672597
C           45.08809210222140        5.64065129616602        0.19765406133008
C           45.07659657766748        7.01905908732269        0.00782183021463
C           45.82621825109840        7.91742477596620        0.95420242674749
C           44.38113702748339        7.55245415141504       -1.07237447613423
C           43.69295935733241        6.72585087408670       -1.95651180603444
C           42.96319112595087        7.31427378510305       -3.13355800308100
C           43.70283283595422        5.35092383089708       -1.75117140642375
H           39.93361930749302        2.53741820621595        0.17799539613229
H           41.82822186188866        4.44355635460582       -0.06839659661009
H           46.99027909165914        4.31112950619114       -1.11634411398234
H           48.89546101029598        2.43116333965044       -0.77439798285264
H           48.87359501041557       -2.49978730315800        0.99455246270217
H           46.97990807283988       -4.41458535178151        1.16639547693471
H           43.13102011031646       -4.88973275769938        2.27757609748134
H           42.64062986271871       -8.54522781487392        2.64783804510357
H           43.55685676115694       -7.55985235791638        3.79375253445806
H           42.04078917111984       -6.94534427415712        3.12653054445438
H           44.45041009413308       -8.76490527554766        1.01691487378701
H           46.16001199976060       -7.47026546104991       -2.02142593299214
H           45.47343916417423       -8.92049790558099       -1.26440272753773
H           46.95433023180596       -8.20291811884760       -0.62227586170001
H           45.72989861154375       -5.26982417691194       -1.10316081373559
H           41.86611169178098       -4.57573840672034       -0.09733747553027
H           39.95789000585325       -2.67935920481786       -0.30975496970525
H           45.61750853545918        5.21394578619658        1.04254662080822
H           45.41801574073457        8.92799682265304        0.93782568682222
H           46.87777278161870        7.96917821573638        0.66294490640796
H           45.77672205885477        7.53278941123277        1.97327387269892
H           44.37113860865230        8.62661655031825       -1.22630442802634
H           42.52607744692513        8.27926792126360       -2.87557234028755
H           42.17137548847382        6.64700183529621       -3.47403993270399
H           43.65888431975235        7.46835274517625       -3.96159492944159
H           43.17687975735745        4.69521995566012       -2.43641587034388
