126
 energy: -210.437945448425 gnorm: 0.000430626055 xtb: 6.5.1 (b24c23e)
Zn          14.08453123947345        0.02472421885275       -0.00974066683428
C           10.67743716958700        0.11882099588927        0.10088358324615
C           11.31016452830005        1.23360329613589       -0.43653009162997
C           10.63904340032287        2.38428059706726       -0.97213333916305
C           11.60037859275785        3.24352769327439       -1.39484663205594
C           12.87191332872454        2.63317354206954       -1.11088977283739
N           12.66004010814208        1.41193615981593       -0.54033936816242
C           14.12445670915410        3.19381863246690       -1.39368052357439
C           14.14393165339346        4.55523645174037       -1.98169073863707
C           14.72353553160912        4.78438917501828       -3.23203523797291
C           14.74731493788839        6.05390358757488       -3.78200394187722
C           14.20082403363935        7.13180591743072       -3.08113049301318
N           14.18992004099514        8.39741144272388       -3.64409728178575
C           13.61319721018712        6.91058429929033       -1.83322176340348
C           13.58627934223367        5.63617492683174       -1.29460512782292
C           15.36049927167606        2.57860729205857       -1.16263998820202
C           16.64310913416358        3.18204894249237       -1.39639570072524
C           17.58572316514391        2.27195725432475       -1.04030206009866
N           15.54926813005498        1.32057642146756       -0.65441395030941
C           16.89025205537689        1.10851471924203       -0.57555146672761
C           17.51717892967332       -0.06545412479184       -0.10960278763830
C           16.85854967466871       -1.20776655496226        0.38937842749701
C           17.51798950302483       -2.40633927513952        0.81570464722607
C           16.55113994446167       -3.26635475687223        1.22738355604320
C           15.29043967982336       -2.59645110124510        1.06666945411213
N           15.51495552242479       -1.34994065709894        0.54466430349677
C           14.03951130928038       -3.14404374925884        1.37431970868186
C           14.01867505194854       -4.50503636188250        1.96409524350645
C           14.64783902711189       -4.76488529000605        3.18390131109416
C           14.62673784646504       -6.03276234178443        3.73797680286606
C           13.98418018614056       -7.07867752280348        3.07103743117544
N           13.92708269465016       -8.33998146289306        3.64066776116646
C           13.34852023336824       -6.82654984701502        1.85284096897353
C           13.36663254464247       -5.55352790834887        1.31072689013268
C           12.80408169339912       -2.51537267258612        1.17033915030502
C           11.52192896117356       -3.05578890317700        1.53667908811802
C           10.58394956567833       -2.14373120427683        1.17694323902789
C           11.28115409016498       -1.03038492966202        0.59751180853827
N           12.62307353194212       -1.28304315604671        0.61330312046354
H            9.59267480651636        0.14899934692402        0.13651361821504
H            9.56805655395716        2.50492933739491       -1.02231948794761
H           11.46373329903415        4.20170659358115       -1.87023787460582
H           15.14261206020517        3.95156844473250       -3.78628672507326
H           15.19203487258845        6.21682587211555       -4.75776600050050
H           14.89477293473943        8.55395224387051       -4.34698387429863
H           14.10118801419967        9.15360060428374       -2.98414559515579
H           13.18332985770640        7.74256447371417       -1.28604065828808
H           13.14617004747784        5.47646277663883       -0.31622012614637
H           16.80243038412298        4.18073797737418       -1.77010534851960
H           18.65844019757350        2.37654752377039       -1.07792850753664
H           18.58433916063524       -2.56609495844575        0.79132379212720
H           16.67856217875016       -4.27201739317042        1.59472303898278
H           15.14118089358926       -3.95637161557646        3.71239791728723
H           15.10953110407470       -6.21913321828775        4.69118537846620
H           14.65939828942682       -8.53923037519565        4.30363830430203
H           13.75371302613349       -9.09049793328527        2.99093224416621
H           12.84483688502362       -7.63362953290016        1.33200792101245
H           12.88645196825284       -5.37004857749546        0.35563075357470
H           11.36407376369931       -4.00652501908693        2.02037880329336
H            9.51349773281465       -2.20528729347973        1.29720605270351
Zn          30.12467378487072       -0.02224129679380        0.01564148083726
C           33.53171890732006        0.01812348867461        0.15558119973165
C           32.89897727543367       -1.04585454622269        0.78763901399397
C           33.57009489914706       -2.12808044177788        1.45075020729138
C           32.60875854602979       -2.95532590283392        1.93309366006369
C           31.33722535322542       -2.38146912445031        1.58116543853097
N           31.54911133570717       -1.23104229371707        0.87868268326540
C           30.08467449150607       -2.92699408974697        1.89209960786064
C           30.06515940278909       -4.16931456253965        2.70195158109579
C           29.48545302471702       -5.33808382215695        2.20221973526103
C           29.46163229916673       -6.49786217953799        2.95657608481273
C           30.00817278683589       -6.50919741717587        4.24223192556801
N           30.01905337159711       -7.67765221185770        4.98614529040684
C           30.59588194287553       -5.34683442993835        4.74723849110233
C           30.62284809992853       -4.19382342726924        3.98253053199132
C           28.84864842841364       -2.39439227763515        1.50707122016146
C           27.56600829034323       -2.92252855307444        1.88092922924713
C           26.62344316218868       -2.12255533901911        1.31949233471332
N           28.65993343827628       -1.27555636096886        0.73949462981359
C           27.31896813295520       -1.09256630978106        0.60633389089688
C           26.69200883100389       -0.05555729087107       -0.11466772238730
C           27.35065718049855        0.99148242905651       -0.79113831262382
C           26.69123551969384        2.00929307298210       -1.55434513893196
C           27.65816195749072        2.82731220563895       -2.04403699680851
C           28.91883480023062        2.32311878875500       -1.57450767968918
N           28.69426096874957        1.19940866055493       -0.82383526633157
C           30.16977811925667        2.88202781110385       -1.86103991864865
C           30.19062941785539        4.12558391936682       -2.66956856250809
C           29.56165771291958        5.28590741433344       -2.21202993903869
C           29.58277865525785        6.44829465557717       -2.96260536907111
C           30.22513793761030        6.47028140755996       -4.20297305458107
N           30.28223694460222        7.64201789078888       -4.93948075432841
C           30.86061034693372        5.31557623686558       -4.66605734645267
C           30.84250412095102        4.16031352878606       -3.90457036181779
C           31.40518239312015        2.36468898956915       -1.44965156741245
C           32.68734175705802        2.96864830079260       -1.69759165328071
C           33.62527680901691        2.16501278538970       -1.13589496030401
C           32.92804324735424        1.06694215462538       -0.52803553620404
N           31.58614500770278        1.21960232461804       -0.73012417488765
H           34.61647026629090        0.03124857146076        0.20064298286400
H           34.64107891699227       -2.23648291974121        1.52374533358599
H           32.74540064600082       -3.88106022021408        2.46892970805953
H           29.06633087708322       -5.33996116520915        1.20184795332440
H           29.01683294717681       -7.40117746869622        2.55332989636947
H           29.31416164972500       -8.34999148097220        4.72834803134694
H           30.10780902214369       -7.54532095899883        5.98105481096306
H           31.02576618668143       -5.35039962915368        5.74301436769394
H           31.06301780581072       -3.29008967012476        4.38990834978498
H           27.40662185842776       -3.78594924817688        2.50665521400985
H           25.55072289603423       -2.21156710999738        1.38601241040308
H           25.62488152272310        2.07737438591675       -1.70088783354310
H           27.53081801303063        3.68903437126405       -2.67943696036080
H           29.06843776809520        5.27967986627123       -1.24607024287006
H           29.10014775169874        7.34579960413091       -2.59115123494723
H           29.55013443396618        8.30481823716391       -4.73894820400704
H           30.45526065770490        7.51512866249439       -5.92408219409919
H           31.36417864096798        5.32738016935649       -5.62658808716549
H           31.32258909704369        3.26286070459729       -4.27946597065620
H           32.84521894579495        3.89703474482643       -2.22290721753645
H           34.69571840351653        2.29932246269253       -1.12060465737665
C           22.71887927582354       -0.09011948194284       -0.18113820091611
C           21.49029901780444       -0.10094480376815       -0.17580351116547
C           20.14588076117108       -0.10017659452514       -0.16212324578105
C           18.92178485266062       -0.09319263781990       -0.14041429712850
C           24.06329600566921       -0.07903962937572       -0.17203823328897
C           25.28737147609937       -0.06495297263573       -0.15369407816741
