286
 energy: -470.303418860754 gnorm: 0.000743847336 xtb: 6.5.1 (b24c23e)
Zn          46.34193560283740        0.03289060053501       -0.03634156190299
C           42.93328036432931        0.09531500989860       -0.07368311402406
C           43.55955858475576        1.01505770945117        0.75911380591203
C           42.88212034180464        1.94417483778264        1.61859531861673
C           43.83879678120148        2.65862278437583        2.26324680613948
C           45.11338487555551        2.18311970146143        1.79514592580129
N           44.90860328129501        1.18058211636241        0.89284053489370
C           46.36304541201113        2.65850235054200        2.21551576754812
C           46.37194498192977        3.78017192520247        3.18517943069196
C           45.78422364714072        5.00744392049237        2.86621982470816
C           45.79814674687166        6.05433722230838        3.76864388455998
C           46.39642268709882        5.90246098573826        5.02540556658658
N           46.33496692962085        6.96197559799764        5.91968662412854
C           47.32104321458935        7.05811884006580        6.98795791612014
C           46.97180766194051        4.67231016301216        5.35579005775715
C           46.96389746741135        3.63307180947638        4.44086459054641
C           47.60286524039606        2.16115264878330        1.79795635348727
C           48.88117569674840        2.69127647690956        2.18366226697193
C           49.82965797689437        1.94091610038198        1.56637441889686
N           47.79975885995932        1.11048500564996        0.94082761499089
C           49.14170306212283        0.95244679195819        0.78986306866344
C           49.77559775596839       -0.02868167504012       -0.00036824884236
C           49.12379301972868       -0.98720261002192       -0.80357419410209
C           49.79217552544583       -2.00093154437944       -1.56444966928651
C           48.83060546336830       -2.71894717588908       -2.19971457545676
C           47.56416592764025       -2.14315879032304       -1.84122147747376
N           47.78050782536693       -1.09787267416350       -0.98216499526994
C           46.31614437874742       -2.59755045567703       -2.28262028454241
C           46.30408166105072       -3.72637954113851       -3.24395151290399
C           46.92677781979962       -3.61292017631550       -4.48815455102491
C           46.91687517686385       -4.66117045135938       -5.39281478290274
C           46.29152566923127       -5.86685103757857       -5.06308408863976
N           46.21233184609593       -6.93317790486781       -5.94798833179510
C           47.21984957116723       -7.07679407225532       -6.99066357203271
C           45.66121542555749       -5.98439959434510       -3.81839914281298
C           45.66578743036644       -4.92854932791337       -2.92642691944711
C           45.07598577981897       -2.07509408323685       -1.89091297576707
C           43.79537961462437       -2.50527143910683       -2.38570755870425
C           42.85164942333495       -1.75394675526607       -1.76431748691967
C           43.54365970131039       -0.84769259030618       -0.89212953208964
N           44.88837002752078       -1.06267516266766       -0.99596809208509
H           41.84774626083527        0.11509714398285       -0.08555226289456
H           41.81064265732197        2.02424128886931        1.71653843955397
H           43.69725478181877        3.43130947873420        3.00191457439233
H           45.33300155203308        5.14600392780714        1.88968282904520
H           45.34513207981595        7.00428125028848        3.50474857868920
H           46.17983317121853        7.85110341981897        5.45962298573698
H           48.34381167075760        6.98802503327660        6.60015906375857
H           47.15919857716360        6.26466879271756        7.71868249452704
H           47.18832680607911        8.02009683225204        7.48306239650435
H           47.42443401273140        4.51793557892723        6.32763158805202
H           47.40558583563929        2.68042021758696        4.71289194278641
H           49.03291269616138        3.53947336029066        2.83172557708223
H           50.90148730843170        2.04748635257894        1.62063959776439
H           50.86049863459853       -2.14513201098576       -1.59668872008172
H           48.96564153856691       -3.57333150342939       -2.84333368946983
H           47.40760710394677       -2.67931406857555       -4.75983172356947
H           47.39494642853148       -4.53291767376170       -6.35624495925413
H           46.01473521821907       -7.81095832471055       -5.48238013947953
H           47.10409867445290       -6.28687433914925       -7.73384870373687
H           47.06496393105434       -8.03931965132126       -7.47821019040722
H           48.23479526301891       -7.03828611108938       -6.57862625596272
H           45.16888211493464       -6.91482359048369       -3.55538818225335
H           45.18921189460152       -5.04089914287016       -1.95860396634142
H           43.64194720802909       -3.27477948602093       -3.12532596303372
H           41.78035641047305       -1.79504124513193       -1.88560658822240
Zn         102.18800386271197        0.01780785698816       -0.02529633126634
C          105.59582381583647        0.06425058068515       -0.11871265585797
C          104.97148563830351       -0.95388059260834       -0.82953907709038
C          105.65093153167452       -1.99019697452712       -1.55432222702340
C          104.69574374686262       -2.78203942578870       -2.10370955052592
C          103.41992550287779       -2.23100491009269       -1.73158404593642
N          103.62270485764563       -1.13042106999345       -0.95136696850001
C          102.17129802074400       -2.75401108228944       -2.09446421876894
C          102.16479079456579       -3.94370891754731       -2.97949375731452
C          102.74073815491417       -3.89199706830672       -4.25188344751050
C          102.72895377281370       -4.99907629511160       -5.07937476364284
C          102.14485549564426       -6.19857973637267       -4.65459951502789
N          102.20818707183940       -7.29977759686396       -5.49693692809352
C          101.23239273204908       -8.37194056223977       -5.35172742572176
C          101.58155696475072       -6.26077552031723       -3.37698518186745
C          101.58700855092478       -5.14309760254934       -2.55963177078345
C          100.93069545943962       -2.24673750215115       -1.69147465482565
C           99.65286829092550       -2.74767029904795       -2.11585066721346
C           98.70328557264126       -1.98556433841064       -1.51484217551589
N          100.73226052566312       -1.18085253281243       -0.85370243641236
C           99.38996381632434       -1.00616519121631       -0.72576719312439
C           98.75479469033053       -0.02158888953187        0.05911129842031
C           99.40530507935027        0.97421462244323        0.81679307453811
C           98.73595309820968        1.93427696746365        1.64353132791066
C           99.69621476499688        2.71584821787141        2.20100870194168
C          100.96266325895813        2.24752083687484        1.71043747129171
N          100.74785291409893        1.17947381503203        0.87943007953843
C          102.20938508705729        2.78614790929705        2.04879267052001
C          102.21920259796602        3.97341516390494        2.93687415896416
C          101.58426722186962        5.15657601030285        2.55508591971397
C          101.59245099011868        6.27158266077477        3.37601458001216
C          102.22869360343408        6.22285136721314        4.61951400993570
N          102.30692677259303        7.32335517507184        5.46155027115357
C          101.29130381649216        8.36470361344619        5.37791022631458
C          102.87101619068171        5.04013025712983        5.00549194271304
C          102.86788257817724        3.93576515997188        4.17431085114860
C          103.44998589967722        2.29772809242337        1.61659483824742
C          104.72873251128101        2.88400387453879        1.91813395747171
C          105.67347299891306        2.11953980903289        1.31457273932190
C          104.98382423405575        1.06480918986781        0.62696661729317
N          103.63952809576719        1.20364288455597        0.82401297613976
H          106.68107276023269        0.07949357056378       -0.14901191350147
H          106.72273842346092       -2.09524211332093       -1.61961641728691
H          104.83911529745760       -3.67015710260580       -2.69818921341805
H          103.18093149197587       -2.96449103663546       -4.60172267934333
H          103.17258038604338       -4.94241225930079       -6.06792933302563
H          102.35239077132822       -7.04089531920584       -6.46568235319552
H          100.20627095975634       -7.98669664444383       -5.35665136128000
H          101.40781916512717       -8.91366613964900       -4.42141646262663
H          101.36275539478534       -9.06110055434045       -6.18611833865685
H          101.14028037721850       -7.18037738178263       -3.01257498506492
H          101.15468798484657       -5.20697532313478       -1.56683325817450
H           99.50211107631502       -3.56804402868726       -2.79902241610081
H           97.63140536019590       -2.06844350916152       -1.60048862910316
H           97.66802516129269        1.99129038371303        1.78289200218934
H           99.56032848264971        3.52926530209002        2.89551094472755
H          101.09510611603564        5.21038023415128        1.58841473803552
H          101.10464311174209        7.17872996592727        3.04087679510886
H          102.51465617606816        7.06639060547691        6.41922166696542
H          101.39528005366594        8.91409062592478        4.44139400298945
H          101.44832207414171        9.05545776270906        6.20636846416215
H          100.27977543153919        7.94728738762184        5.44067365700968
H          103.37171178829193        4.99421112250974        5.96697562865681
H          103.35395344124954        3.02072946123527        4.49504948993252
H          104.88023212827123        3.77569127742719        2.50520362482819
H          106.74389156770692        2.25459417633755        1.31997827963492
C           51.17957149477319       -0.05345360981843        0.01473446897111
C           52.40458019964602       -0.07255283843195        0.02552567486619
C           53.74651080317737       -0.08815755191156        0.04141730287609
C           54.97765744489242       -0.09904917178003        0.05154031827481
C           56.31499136895604       -0.10395957650956        0.06056759262291
C           57.54623959340560       -0.10506389175646        0.06249926216015
C           58.88816180856966       -0.09940929581326        0.06110536099365
C           60.11344679502738       -0.08686738305856        0.05630600580989
C           69.79692946465613        0.11617623550908       -0.11501927360194
C           71.02239472025163        0.12293249373132       -0.12098834553486
C           72.36424119924121        0.12255938178959       -0.12289190667012
C           73.59565867925480        0.11856447736371       -0.11893268924165
C           74.93281202966706        0.10888442871273       -0.11228850947780
C           76.16416024134909        0.09707059422323       -0.10199679245518
C           77.50583518736774        0.08320522136279       -0.08745516053481
C           78.73116054363626        0.06899611844634       -0.07306345330765
C           88.41666522272595       -0.01612034756587        0.09803994706032
C           89.64193582478310       -0.02551322249377        0.11213379243635
C           90.98380808486729       -0.03141890233679        0.12501255422674
C           92.21510933225643       -0.03336823727000        0.12699935752122
C           93.55247845826746       -0.03806030754631        0.12497175532163
C           94.78368920212472       -0.04372385594631        0.11704914452963
C           96.12576070582593       -0.03783790383284        0.10498960558617
C           97.35081943084239       -0.03159924768437        0.08664868589593
Zn          64.95526614320835        0.01754892060562       -0.03155447234778
C           61.51704868160899       -0.06872134447921        0.04615022664159
C           62.16863434929240       -1.05763604084452       -0.71954968213600
C           61.49757062776330       -2.05874937733248       -1.49345280211771
C           62.45914573004478       -2.79692152717915       -2.10591011704488
C           63.72757015653765       -2.25817099341771       -1.70326357821332
N           63.51343546566473       -1.19767661958912       -0.86341414713697
C           64.97582551947123       -2.72256935138962       -2.13469903689454
C           64.98143913394948       -3.89646052226279       -3.04188499612805
C           64.46436943672808       -5.12513954823407       -2.62269243269526
C           64.46233494270786       -6.21725114556576       -3.46988704628425
C           64.96557238311540       -6.10841900683020       -4.77189835933347
N           64.98055433512900       -7.24248978403085       -5.57189376046359
C           65.00015750546770       -7.09748856960084       -7.02165932351463
C           65.49208881674687       -4.88414150646784       -5.19309336482294
C           65.49889198990898       -3.79786937324472       -4.33430050795856
C           66.21622188022587       -2.17542679369995       -1.78724295510424
C           67.49253909373901       -2.69173446607431       -2.19443082116867
C           68.44260315524789       -1.90193957018647       -1.63050962537279
N           66.41437880010457       -1.08897899368382       -0.97665918569186
C           67.75667309788417       -0.90193998345145       -0.86783665221111
C           68.39335942421907        0.10050319698227       -0.10666833787586
C           67.74208685424496        1.07711715419871        0.67553223753933
C           68.41363780784185        2.06029247933107        1.47163928955092
C           67.45214963719248        2.80145319497202        2.08080835621667
C           66.18322757774685        2.28296399585982        1.65384777810247
N           66.39714785245815        1.22803688398073        0.80657100861212
C           64.93396339064168        2.76528469407373        2.06271942554233
C           64.92282001414328        3.94712751096465        2.95800442921509
C           64.34123603225471        3.87908241089581        4.22528435886090
C           64.32398891674779        4.97892987682429        5.06624449294802
C           64.89283072178711        6.18712250927664        4.65330777047690
N           64.85126381691649        7.33628796376696        5.42895458295162
C           64.71143676713098        7.22678126381084        6.87471876512229
C           65.46873961707750        6.26353937678701        3.37912182410384
C           65.48757021601196        5.15862055072129        2.54922836647546
C           63.69247549733007        2.22996266800061        1.69783967495979
C           62.41522829494364        2.76684620229140        2.07465947790978
C           61.46582567584225        1.97169483684826        1.51710372894126
C           62.15304490382254        0.94965613511887        0.78611396662756
N           63.49552765814795        1.12996904668928        0.90578855028393
H           60.42727060693252       -2.17177443118193       -1.56221378876459
H           62.32106584638488       -3.62442311342028       -2.78304716714620
H           64.07680227457735       -5.22566950012490       -1.61471161087236
H           64.06740077880788       -7.16828884168921       -3.12819131263618
H           64.31433458020780       -7.94193643869823       -5.26628243177369
H           64.20118835105281       -6.43332207151832       -7.37090402526232
H           65.96342881327006       -6.70119716168515       -7.34511978214913
H           64.86475341118462       -8.08595642706409       -7.46063934687181
H           65.89799718078945       -4.77189536648845       -6.19098074313182
H           65.89385105461672       -2.84820734763549       -4.67889970359456
H           67.64258170230394       -3.55751072073209       -2.81910068094386
H           69.51438783305392       -1.98802851626953       -1.71346887457756
H           69.48410984082528        2.16027468713993        1.55625786094046
H           67.59058853985633        3.61732969315288        2.77184898140381
H           63.91250417279213        2.94238467857051        4.56499662646100
H           63.86499609239976        4.88996215373805        6.04324057849572
H           65.55203051102185        8.01616845103794        5.15948197878264
H           65.46259475665009        6.55323729559104        7.30307882364324
H           64.83509726975350        8.22225923515725        7.30121121558713
H           63.71541569432199        6.86063848048112        7.12710640866132
H           65.90008321880143        7.20109496021597        3.04430394608731
H           65.92636984826758        5.23670513532497        1.56043649932331
H           62.26290401201563        3.64951383833698        2.67452940845837
H           60.39384303693091        2.06882271851956        1.58357759297581
Zn          83.57339805580067        0.02683973897236        0.01171815580686
C           80.13451570893589        0.05668531848682       -0.04984739902074
C           80.78323253012098       -0.96302930745766       -0.77704659881945
C           80.11016176721779       -2.00168584196524       -1.49796957838219
C           81.07023258742771       -2.77511792591427       -2.06789125994339
C           82.33948166325592       -2.20876230468049       -1.70787905900422
N           82.12774263375853       -1.11376252772520       -0.91253194242419
C           83.58764292207849       -2.71121006882984       -2.09451842226539
C           83.59582760236921       -3.88144386696360       -3.00513035679269
C           84.19605064807527       -5.08345150455481       -2.61987391465278
C           84.20973375403231       -6.17189269854296       -3.47147544475742
C           83.63347487981456       -6.08641127280400       -4.74477582343733
N           83.63389902211199       -7.21807204654110       -5.54762119335744
C           83.51526294274981       -7.07460869169312       -6.99260102422387
C           83.02403173173329       -4.88957422051765       -5.13188936813207
C           83.00751064139220       -3.80695718360650       -4.26884770167764
C           84.83091792419590       -2.20258968361796       -1.69905223294040
C           86.10560715853406       -2.68761783503652       -2.14756013339677
C           87.05790506959956       -1.93429153229434       -1.53888336525088
N           85.03157830574671       -1.15353682947644       -0.84169326672453
C           86.37446397761558       -0.97588420401516       -0.72314100838029
C           87.01320927671090       -0.00542484426494        0.07652046367857
C           86.36328251536830        0.97778526377032        0.85110587003711
C           87.03338973992081        1.92811117923642        1.68709984777925
C           86.07322380060474        2.70392432944881        2.25383338852567
C           84.80749802099913        2.24008502869208        1.75984126043795
N           85.02041334723855        1.18102504203874        0.91799299600224
C           83.56033044438438        2.77657840773097        2.10290254196244
C           83.55716180044125        3.96233956388256        2.99317729404077
C           82.91806153082860        3.92612307911372        4.23363088912002
C           82.91756595522010        5.02830247456886        5.07185272204883
C           83.56106419191107        6.20648327440114        4.68258354292398
N           83.54472710621847        7.35770692997003        5.45672841189688
C           83.35685281894386        7.25404189947752        6.89764603912313
C           84.19167920866475        6.25251885805205        3.43320149604446
C           84.19410478172534        5.14498435547491        2.60663375007210
C           82.31801103881924        2.29272457091447        1.67583713359495
C           81.04664376828998        2.88310860327229        1.98650362445667
C           80.09424875417267        2.12134593217707        1.38879451311999
C           80.77459592193112        1.06694404597081        0.69817572925815
N           82.11576094215242        1.19555102864360        0.88089067184583
H           79.03987131122791       -2.12329977631727       -1.55024349869592
H           80.93142679734372       -3.66057955267329       -2.66703112031527
H           84.63928858985724       -5.16710039248803       -1.63352531045763
H           84.67008398926862       -7.10222409204879       -3.15565741651260
H           84.35321245466560       -7.88144159169269       -5.28537499142868
H           82.51283758225708       -6.73292791425899       -7.25346524839783
H           84.25221243283268       -6.36683371216593       -7.38929923348360
H           83.67774771898985       -8.05401052329644       -7.44260333048669
H           82.56110923924359       -4.79581503765801       -6.10658719825977
H           82.54843024487202       -2.87765023399417       -4.58860481556124
H           86.25389252239728       -3.49172985835752       -2.85022252610034
H           88.12922596488950       -2.01001566470466       -1.63678582375806
H           88.10147228717632        1.98389365367134        1.82548942956278
H           86.20958882471585        3.50998344016697        2.95670601533579
H           82.43114912801482        3.01186348375171        4.55557290265144
H           82.41399765138536        4.96455637430036        6.02866570893423
H           84.28541476872559        8.00356223786012        5.21095350669392
H           84.06281523178772        6.54584259801139        7.34649984446892
H           83.51428845473855        8.24238281619116        7.32954793307753
H           82.33786457443226        6.93465535989528        7.11980831124557
H           84.68040493504796        7.16768208587921        3.11571535393479
H           84.67860642758428        5.19846483055457        1.63774064784721
H           80.90151851773808        3.77525818741121        2.57407166587358
H           79.02502082295119        2.26124990938393        1.40265720205555
