454
 energy: -711.207885990056 gnorm: 0.000395284577 xtb: 6.5.1 (b24c23e)
C           88.66357053193830       -0.09145653776131        0.06566043589446
C           89.26817380979806       -0.21245693874537        1.31061955536785
C           88.61020786171873       -0.32359730394075        2.56682673851502
C           89.56833258403280       -0.43206645238972        3.53602252282539
C           90.84239013379219       -0.40358912077961        2.90161488664396
N           90.61041224071816       -0.25782027000694        1.56297792925270
C           92.10328042952732       -0.48965151004530        3.50630138620588
C           92.12352261315370       -0.68576635894997        4.97349795554443
C           92.76438874563168        0.22602223964239        5.81410070104957
C           92.76590371760992        0.05767288708720        7.18690135115913
C           92.12612445565816       -1.04120035059223        7.77982595762133
N           92.16778527295307       -1.24521070946108        9.15633438626129
C           92.50117621973975       -0.09506184609360        9.99703908710338
C           91.15222614031298       -2.12763983624674        9.73308408088532
C           91.50104109840061       -1.96771386950105        6.93160898507511
C           91.49574997355522       -1.78598295713524        5.56073525040205
C           93.32041947525880       -0.40510451031850        2.82428628533347
C           94.61678162035527       -0.57139991361788        3.45528783676055
C           95.53924202293015       -0.41765035344275        2.48205123757239
N           93.47724044120477       -0.17875917793050        1.49022564038326
C           94.80514511919557       -0.16971923666340        1.25700809797779
C           95.44467921313053        0.05062174929997        0.01938887468831
C           94.81186024074249        0.24611107906602       -1.22395896929272
C           95.45938585147429        0.50903748763971       -2.45940638593816
C           94.49659852438893        0.62466355563906       -3.42442634327714
C           93.23094699144870        0.42434469794829       -2.80841885260648
N           93.47315053238796        0.20984363296771       -1.47660838925076
C           91.97218649093718        0.45744461340261       -3.42065529886353
C           91.94335026473226        0.66530506827592       -4.88520143332088
C           91.25043457813902        1.74045221764997       -5.44507492809533
C           91.22537872088593        1.94419731775194       -6.81262367964418
C           91.89194654199956        1.06998822158443       -7.68439332880792
N           91.82320123301885        1.23397688562296       -9.06484672740739
C           92.86099010185146        0.58509016316710       -9.86785470986051
C           91.41544787352740        2.54563079276548       -9.56858679464936
C           92.57325962530393       -0.01959118132962       -7.12082415553776
C           92.60253647684776       -0.20920053275850       -5.75137856085689
C           90.75540227766837        0.30808688369146       -2.74428932399447
C           89.45586727809784        0.27298612412537       -3.39624016332046
C           88.54015615045235        0.12401541384457       -2.41730684386511
C           89.27974387679903        0.05417343834232       -1.17019119537866
N           90.61101864702064        0.15746997831246       -1.40644974076206
H           87.57831193039073       -0.11493459452027        0.06914287871535
H           87.54004020067363       -0.31251690645452        2.69993208488194
H           89.41005710210534       -0.51336678370277        4.59919959458172
H           91.33975591363276       -0.18671889891345        0.86133958725803
H           93.24899419342927        1.09706764388002        5.38646427414156
H           93.27360776798811        0.79799138187604        7.79161503119311
H           91.82259411757221        0.74618299911762        9.81679281739153
H           92.43284280955096       -0.39131572512922       11.04325454107009
H           93.52729694133332        0.21653312965474        9.79971585266795
H           90.14052753727795       -1.80844349316095        9.45905558761846
H           91.31610784684668       -3.14946474828220        9.38930358291125
H           91.24889396687820       -2.11631064477356       10.81816558253199
H           91.01576096464616       -2.84816636561676        7.33283502400632
H           91.01438175511234       -2.52614699154478        4.93044964107606
H           94.77858569032622       -0.79418517391851        4.49756006407155
H           96.61351922856288       -0.47302721720306        2.55845629112872
H           96.52608896658556        0.60403878636863       -2.58381278340187
H           94.64775707573121        0.84246704934951       -4.46911862091422
H           92.74868202996383        0.05826139463147       -0.78249157195031
H           90.74249832433732        2.44470767690797       -4.79505554664760
H           90.67715563976350        2.79687874049664       -7.19189572926602
H           92.74269762199025        0.88531989829632      -10.90831199517638
H           93.86422312386574        0.86187918701090       -9.52571013964558
H           92.74440443113659       -0.49777930617968       -9.81230795925516
H           90.38525808676337        2.74636546522729       -9.27308947354997
H           91.45880797616874        2.53416169927791      -10.65716403642108
H           92.06606158588139        3.34250745528562       -9.19125160712161
H           93.08268562041732       -0.73974408540573       -7.74816083280858
H           93.12612652471294       -1.06874901002862       -5.34671242307925
H           89.29069581694256        0.33677462881688       -4.45977673059344
H           87.46678919176723        0.05368418501706       -2.50141262366292
C          162.67685707484020       -0.10693115751869       -0.10940774410234
C          162.07091791062709        0.06012602950138       -1.34840729239348
C          162.72742859818442        0.23598330644190       -2.59795928533940
C          161.76810802126755        0.35449902114856       -3.56481626778616
C          160.49474425528666        0.24085681605645       -2.93864707762363
N          160.72836701764228        0.07739942500729       -1.60232698022707
C          159.23283525601792        0.29471615187922       -3.54487785629855
C          159.20888552542237        0.44077168767470       -5.01775649812557
C          158.56372386399951        1.52063431752514       -5.62320892547356
C          158.55884449801087        1.67463976937679       -6.99759140989403
C          159.19940100640983        0.74455344981617       -7.83011259025464
N          159.15509976830319        0.86562975116234       -9.21629793376263
C          158.82028863659914        2.17970051922086       -9.76594601691609
C          160.16980751667450        0.14213836804976       -9.98410391437953
C          159.82786879968819       -0.35195713570997       -7.22076746674538
C          159.83656909896789       -0.49247243950011       -5.84501850619680
C          158.01698248550773        0.22060704122057       -2.85932570568364
C          156.71990926125270        0.19516829977824       -3.50989144947790
C          155.79888605673480        0.12558710910041       -2.52569313979666
N          157.86212508351784        0.14364046491769       -1.50817188896727
C          156.53461919259820        0.09820435218821       -1.27705846009585
C          155.89663263525736        0.04575252291422       -0.02022403489048
C          156.53128574755650       -0.03234811634851        1.23501431447910
C          155.88632188609037       -0.04205827477113        2.49938998820930
C          156.85059269283443       -0.14504707350111        3.46439936655252
C          158.11457307571402       -0.21306112804968        2.81689054883393
N          157.87006008131982       -0.12914054319073        1.47096353532120
C          159.37392581603996       -0.32495032364160        3.41850953961621
C          159.40595394071113       -0.44580262610301        4.89268892661527
C          160.11009386567937        0.47275277959847        5.67373753156665
C          160.13949039496643        0.36906742518973        7.05240735958114
C          159.46589167252384       -0.67003667482601        7.71192887574809
N          159.53794208580584       -0.81617929933415        9.09427297011672
C          158.49038080303296       -1.61118703580791        9.73746619251959
C          159.96509241798273        0.34568117095199        9.87397580063875
C          158.77324876159221       -1.60200333776092        6.92410488769015
C          158.73990170716138       -1.48417294383426        5.54671498522420
C          160.58911874394747       -0.33083527179647        2.72294089571482
C          161.88856858435133       -0.52067033134957        3.34782942706183
C          162.80267461849235       -0.45510821952151        2.35831275388410
C          162.06213185451475       -0.23906746763371        1.12865535760994
N          160.73174746338387       -0.18118734513461        1.38482865915605
H          163.76195563503728       -0.13505692708810       -0.12005695786986
H          163.79751593067763        0.27393491798837       -2.72668202404721
H          161.92513425046047        0.51750674479041       -4.61874740584493
H          159.99973528758335       -0.01037994546060       -0.90182871070169
H          158.07843794658993        2.26763506978273       -5.00439629436604
H          158.04790576238045        2.53339918039731       -7.41348034317123
H          159.49760307027231        2.95657572884655       -9.39395698581652
H          158.88948598249823        2.13574538971559      -10.85234798166649
H          157.79364015951529        2.43538536599935       -9.50210196391320
H          161.18203527336374        0.39152680806459       -9.64689510404777
H          160.00835776756801       -0.93173835493506       -9.88488665816901
H          160.06936190634420        0.40333725952012      -11.03697774371741
H          160.31334509164742       -1.11466793074862       -7.81598060265863
H          160.32054020263095       -1.35755309456519       -5.40430879321772
H          156.55685675947967        0.20909819702933       -4.57543196186031
H          154.72463774987943        0.08533462013276       -2.61132994090370
H          154.82022523095307        0.02884427382911        2.64358521392256
H          156.70157570516560       -0.16016125060660        4.53175488738193
H          158.59320714164062       -0.12973124348794        0.75913488650638
H          160.62372389738721        1.29861338348069        5.19348790900241
H          160.69654602545620        1.11196267664216        7.60850638847152
H          158.61003129769009       -1.54613102067298       10.81824915575141
H          157.49155341115917       -1.25373849741839        9.46425286264502
H          158.59338641832392       -2.65739876472494        9.44742096778899
H          160.99676935204408        0.59431860556498        9.62353799116312
H          159.92578564025891        0.09307437423952       10.93308184907992
H          159.32382585328642        1.21446716821158        9.68753108770806
H          158.25840921040464       -2.43856811877995        7.37887978131544
H          158.20770491545989       -2.22859257267763        4.96419074251364
H          162.05480783288615       -0.69685081337741        4.39844100519550
H          163.87545588879257       -0.55089435050688        2.42233626352447
C           98.07225050848297        0.10387331396325       -0.01152000925973
C           96.84980917211085        0.07946118905040        0.00851335127951
C           99.42081375949539        0.12655147731623       -0.02376933948801
C          100.64352289218891        0.14620884011912       -0.03887653083719
C          111.53257403907595        0.21943573543135       -0.02250985747893
C          110.30930183267922        0.21059203079283       -0.02433699635700
C          112.88085644184093        0.22941347002310       -0.01797245314689
C          114.10412070883912        0.23935837530348       -0.01600251458008
C          124.99742884447434        0.24328166678372       -0.00221802614111
C          123.77413756452711        0.25185834960915        0.00426420938166
C          126.34574977517413        0.23380770551733       -0.00356716581128
C          127.56904785058228        0.22518796603197       -0.00897417728830
C          138.46157028032997        0.21411191774041        0.02008454274755
C          137.23831129071382        0.20676446591111        0.01362335939097
C          139.80981119316280        0.22120920597260        0.02966462786141
C          141.03304929806842        0.22779587951570        0.03643246080256
C          151.92062716003986        0.12053058031365        0.03437584456782
C          150.69792085302817        0.14072191611224        0.04932213829203
C          153.26915432475298        0.09699179410987        0.01997700958319
C          154.49156825010417        0.07334253531618       -0.00259169194984
C          102.04784344756905        0.16391824553534       -0.03865176873523
C          102.67255039426968        0.07395579765781        1.22120614112280
C          102.02148288819828       -0.06642462589295        2.47296510983223
C          102.98309114248411       -0.08672047400163        3.44710375285822
C          104.24905877226030        0.05097886521704        2.81719497173815
N          104.01122734010659        0.13095697983951        1.47081851906609
C          105.50531783061327        0.08719993908904        3.43836056307875
C          105.50767378525383        0.04909604901078        4.91857554262710
C          104.84363912377687        1.02637322792239        5.66240714122770
C          104.83592476920832        0.99348386999567        7.04477707910775
C          105.48223979286900       -0.03610185276382        7.74538992288281
N          105.51010266844398       -0.04832230996304        9.13715019938217
C          104.47706464078317        0.71967455500287        9.83393135293787
C          105.85249495997849       -1.31162029456392        9.79143705649163
C          106.15693114558538       -1.01169381935566        6.99598857894175
C          106.16979357974388       -0.96418192464628        5.61386596190013
C          106.73147930837300        0.15717336858188        2.77364014106824
C          108.01256640371675        0.26316123068274        3.44753419164642
C          108.95345710491161        0.29024313527445        2.48016237786641
N          106.91409616307374        0.14796979126292        1.42369405647762
C          108.24497778833255        0.21424581000576        1.21866423484779
C          108.90525965252658        0.20380798470051       -0.02745903841830
C          108.28121790142799        0.19069183433588       -1.29107763787353
C          108.93342855636376        0.13600000873624       -2.54891665568123
C          107.97175060250602        0.16247660409178       -3.52294895585245
C          106.70426106868790        0.24617277962423       -2.88656434751678
N          106.94190477408371        0.24682921689532       -1.53744822551687
C          105.44713600891269        0.30648534198254       -3.50395510018957
C          105.43791527703334        0.34961853249497       -4.98377802228225
C          106.09427109467936        1.36617009970732       -5.68032049844440
C          106.08458130181090        1.41012734827521       -7.06242724368479
C          105.42648976559757        0.42279562227428       -7.81152787935705
N          105.37578751938992        0.49309182331606       -9.20033626172437
C          104.99712281548757       -0.72041286684266       -9.92438010771059
C          106.40530403587479        1.28948429281049       -9.86977651097047
C          104.76327047646062       -0.59495719891081       -7.10935250405463
C          104.76865897649432       -0.62470706012487       -5.72685358326670
C          104.22070384687143        0.32753480254197       -2.83506055635018
C          102.93842780488812        0.46910715812642       -3.50047588602226
C          101.99765051396290        0.42479293958616       -2.53357522436915
C          102.70711988686041        0.26975497112687       -1.28020403089217
N          104.03887097815515        0.22913526447332       -1.48899543470356
H          100.95439076800442       -0.14705430632319        2.60363418161614
H          102.82910238250746       -0.19972136679981        4.50780297848338
H          104.73382371930668        0.21307374736385        0.76346935883531
H          104.34336825859447        1.84055531637845        5.14901144872296
H          104.32268691780753        1.78717310122110        7.57223814596568
H          104.56761794213051        0.54331486927845       10.90515402968067
H          104.62693964711568        1.78442044011944        9.65220450264917
H          103.47224284614285        0.43138398962275        9.50586004895749
H          106.88503127752506       -1.57515445916512        9.56057998735557
H          105.18826289040945       -2.12278073754589        9.47294123394867
H          105.76911039676885       -1.18410999847337       10.87020682397500
H          106.68207647731228       -1.82256149286124        7.48406353930326
H          106.68301507502503       -1.74361736555315        5.06115040309825
H          108.15229263237357        0.32554250843997        4.51460081330331
H          110.02420773546650        0.36495565805260        2.58429713276425
H          110.00142663700916        0.07655475027203       -2.68367862745798
H          108.12691812557432        0.11561872482502       -4.58846141083174
H          106.21851488718143        0.27543925240676       -0.82673414945274
H          106.60028944811802        2.15150873765422       -5.12904327711079
H          106.59140707036914        2.23194018542670       -7.55169917004715
H          105.65554687931979       -1.56026517883238       -9.67578179048118
H          103.96639568916474       -0.98278763786949       -9.68404018088151
H          105.05559369441825       -0.52523930249823      -10.99466510132077
H          107.41198801311046        0.97518567111061       -9.57294074562294
H          106.29774819057826        1.17267586880697      -10.94754670006370
H          106.26819605769087        2.34402271137510       -9.62801236204801
H          104.23266054717281       -1.37831565847998       -7.63496246216291
H          104.26302825088138       -1.43453501151477       -5.21212554389561
H          102.79738801945477        0.60283065933304       -4.56077992620403
H          100.92629924965897        0.49871943718316       -2.63219860028100
C          115.50809769437741        0.24830965214538       -0.01159182198376
C          116.13182607502986        0.17710739493746        1.25019441917922
C          115.48008341532730        0.05513054898827        2.50341171811039
C          116.44206064908914        0.03324647399839        3.47729214799781
C          117.70904682948051        0.15337842999815        2.84584771797339
N          117.47100057132685        0.22553439100976        1.49886838755814
C          118.96632922852943        0.18095967953912        3.46538518889969
C          118.97311747777191        0.13377536468350        4.94541503610919
C          118.31956804473703        1.10804780861105        5.70220144805869
C          118.31823702706949        1.06062811225804        7.08427767166965
C          118.96073474425867        0.01950700983076        7.77138024071173
N          118.99459209591507       -0.00660164669379        9.16268020527857
C          117.95987653294088        0.74806254300001        9.87157428063111
C          119.34948298076887       -1.27323621022330        9.80343305266205
C          119.62539723579755       -0.95280158199858        7.00891143795307
C          119.63177884854638       -0.89091395669403        5.62742421108428
C          120.19281892791726        0.24353035288576        2.80006590581336
C          121.47359701148865        0.34995185682082        3.47464284068269
C          122.41564080631434        0.36872051480403        2.50815264869766
N          120.37686757693604        0.22537892467297        1.45047650639411
C          121.70840107153727        0.28480912997035        1.24660734246889
C          122.37010319566758        0.25698745935628        0.00155967641329
C          121.74635961521953        0.22966140628029       -1.26201818403296
C          122.39836118021753        0.15481395645944       -2.51888116741900
C          121.43642425947093        0.16487072956200       -3.49294747141163
C          120.16912534711045        0.25848595001883       -2.85764610302970
N          120.40706697892122        0.28311231399625       -1.50888530743088
C          118.91177981602902        0.30390964206195       -3.47570108876021
C          118.90296918638641        0.30829475516988       -4.95639009874502
C          119.55168411142094        1.31029074481662       -5.68030487811698
C          119.54708608188169        1.31264119595217       -7.06323764147471
C          118.90305334013165        0.29596435779419       -7.78459590755268
N          118.86097001150010        0.32009805304038       -9.17569477555713
C          118.51204930721090       -0.92570165399235       -9.85935204149613
C          119.88485864408074        1.10841638597141       -9.86313314607799
C          118.24425742006210       -0.70502138531320       -7.05481350633604
C          118.24393626220224       -0.69300963781500       -5.67204246950286
C          117.68520400523667        0.33992137235903       -2.80842773133206
C          116.40418439620034        0.46740661611853       -3.47889529175774
C          115.46216200943563        0.44959329456878       -2.51241211521453
C          116.16966982033803        0.32261075104982       -1.25468438037042
N          117.50137691250166        0.27324794710361       -1.46048195421090
H          114.41230111946084       -0.01424498495579        2.63505212473239
H          116.28732808495062       -0.06944502136744        4.53892890516232
H          118.19395232806832        0.29254885545203        0.79027014589341
H          117.82331695329385        1.93152667267412        5.19988351500204
H          117.81374170273833        1.85252011781813        7.62281882432706
H          118.05296943476918        0.55777276344070       10.94018735840553
H          118.10485987386208        1.81577362548787        9.70385824197686
H          116.95576185823521        0.45994393957732        9.54128167474361
H          120.38182951798018       -1.52824792876108        9.56221654538679
H          118.68784619420590       -2.08596236519304        9.48345506047303
H          119.27383124201755       -1.15532250641852       10.88387862096375
H          120.14706213909450       -1.77250314969881        7.48578885271183
H          120.13722939444966       -1.66784317517250        5.06409962111878
H          121.61214752420321        0.41963709357436        4.54142245886496
H          123.48647611200384        0.44180894207551        2.61269835148578
H          123.46631496263116        0.09328771139323       -2.65295366203209
H          121.59125868874180        0.10093442307374       -4.55760817987739
H          119.68400950120612        0.32269084010364       -0.79833130054992
H          120.04848704779549        2.11621308143883       -5.15080018035620
H          120.04789955171049        2.12441556166227       -7.57491622053771
H          119.17792728639759       -1.74541511658977       -9.56733855465212
H          117.48111430043467       -1.19414318734902       -9.62666751844101
H          118.58667988881206       -0.77075902649764      -10.93515175604596
H          120.89361127208279        0.81383759705983       -9.55326610519972
H          119.78321668278846        0.95983155650469      -10.93756570378992
H          119.73492702460906        2.16772366449657       -9.65213734314959
H          117.72165496464721       -1.50775757872639       -7.55875652373650
H          117.74252355085707       -1.49078678240054       -5.13485678798124
H          116.26520257684223        0.57494467000737       -4.54245090552507
H          114.39120460080419        0.52419539209289       -2.61445240654358
C          128.97307102549081        0.21607577324957       -0.00637694821705
C          129.59628304682326        0.14117175862621        1.25556679552524
C          128.94338594750721        0.02650005610345        2.50894350809344
C          129.90494917859135       -0.00121586988927        3.48308329586897
C          131.17286174380357        0.10826091398112        2.85166773463212
N          130.93571802453386        0.17899973258190        1.50440245061057
C          132.42994345512881        0.13014032621342        3.47155601604549
C          132.43811716496683        0.09255621840346        4.95178144274836
C          131.79257772203067        1.07712550329820        5.70199979254684
C          131.80077557075282        1.04551381839197        7.08452680334890
C          132.44585362163576        0.01090200464454        7.77894488195061
N          132.49526432509492        0.00226077919036        9.16980415291393
C          131.48257508726167        0.78243860472499        9.88233138119010
C          132.84110666754225       -1.26060910795504        9.82296695125042
C          133.09908302502421       -0.97413852149423        7.02279040934605
C          133.09578691988307       -0.92817372753878        5.64073049868220
C          133.65686359232976        0.18582785556583        2.80634522839592
C          134.93780886426561        0.29010704261350        3.48090850455706
C          135.87974944876015        0.30863345091174        2.51442205721761
N          133.84081796724766        0.16682730627829        1.45679510040822
C          135.17232290750187        0.22639867802783        1.25288438715317
C          135.83434463422779        0.20185028123702        0.00799776431806
C          135.21142260461559        0.17151732027023       -1.25579331211812
C          135.86390096405722        0.09697186922381       -2.51237738617265
C          134.90219120217191        0.10605751995129       -3.48675709532733
C          133.63464368248017        0.19896952237249       -2.85181604293820
N          133.87208359202921        0.22261070566121       -1.50302137286467
C          132.37763714443986        0.24800611949944       -3.47041047385338
C          132.37043328786476        0.26099303836698       -4.95117967264840
C          133.01993881381378        1.26854996503515       -5.66670534197346
C          133.01537590687610        1.28251513390525       -7.04949751527357
C          132.37065503775398        0.27236647216228       -7.77940723896168
N          132.32838327010083        0.31040063585360       -9.17018647949297
C          131.96695039626636       -0.92420986109390       -9.86710857800796
C          133.35975803593664        1.09616015215151       -9.84964408109703
C          131.71223881334336       -0.73493917206373       -7.05807185604858
C          131.71165676379582       -0.73438623605126       -5.67514522237600
C          131.15085291894277        0.28663715919062       -2.80370780353770
C          129.87048393496926        0.41937263672494       -3.47443565987013
C          128.92835790505021        0.40879253443095       -2.50794604306578
C          129.63507753017225        0.28051911907018       -1.24985539074365
N          130.96642320925125        0.22240456489124       -1.45562053949654
H          127.87508661175521       -0.03450694722106        2.64047277058678
H          129.74949669332858       -0.10076138135835        4.54492222120264
H          131.65941836002531        0.24047979265938        0.79605932150785
H          131.29603701137728        1.89684873734998        5.19385530321896
H          131.30226380279197        1.84513188390069        7.61714457125628
H          131.59488661758189        0.61346354051723       10.95269071125765
H          131.63566840677407        1.84473119360018        9.68948396565048
H          130.46907252310677        0.49862807300822        9.57790494275821
H          133.86996391049260       -1.52820699464255        9.58021446786157
H          132.17046229504942       -2.07032078445997        9.51444814123541
H          132.77108254440526       -1.13049643967002       10.90236774846416
H          133.62089876544667       -1.79031868820426        7.50552970242865
H          133.59394097230640       -1.71362587907308        5.08275073777690
H          135.07700337201206        0.35892007157200        4.54762731206199
H          136.95060919555442        0.38053326217533        2.61924097006625
H          136.93199128414304        0.03645055609875       -2.64595385527662
H          135.05724380283297        0.04215787481468       -4.55140332302944
H          133.14882074076888        0.26306962232967       -0.79273138413804
H          133.51688818681774        2.06989007255089       -5.13042188553859
H          133.51603089034035        2.09854309717272       -7.55455303815269
H          132.63179750364057       -1.75109833069126       -9.59336004278514
H          130.93712448992454       -1.19086049549866       -9.62777298800235
H          132.03136627504747       -0.75450057441939      -10.94137937001634
H          134.36528369036404        0.79526489462541       -9.53552240586734
H          133.26316942192048        0.95193371936587      -10.92512779076187
H          133.21432090983279        2.15552367036346       -9.63556696841284
H          131.19037770578655       -1.53399644499144       -7.56858358826641
H          131.21002520831235       -1.53651802229451       -5.14469363350950
H          129.73208055474433        0.52512582397015       -4.53824955231201
H          127.85780096312756        0.48879359021755       -2.61019307165445
C          142.43708687620662        0.22900917435485        0.04178781284167
C          143.06005011213097        0.16142261137077        1.30404945792395
C          142.40715597273413        0.05799888418187        2.55853877653234
C          143.36878680407614        0.03559387691160        3.53269465587543
C          144.63704730039194        0.13562135018400        2.90017507002490
N          144.39965298128814        0.19829592932714        1.55250587954666
C          145.89466543405811        0.15156450378647        3.51883265523072
C          145.90501372830491        0.11992911045101        4.99921697871018
C          145.27073299823959        1.11320223673361        5.74748270921558
C          145.28349196501884        1.08726037365324        7.13019139786835
C          145.92161719575012        0.04976516740177        7.82677945952292
N          145.97753338150878        0.04697951036611        9.21723487844583
C          144.98160043644751        0.84654003691931        9.93161102472795
C          146.31001362614535       -1.21673207761003        9.87557094057455
C          146.56188802702843       -0.94518672967721        7.07245056932834
C          146.55448156288992       -0.90469131941500        5.69030678923857
C          147.12134100453500        0.19101086455865        2.85139906285272
C          148.40484876231537        0.28148501921821        3.52334959841577
C          149.34538907888282        0.27992712555327        2.55528824186148
N          147.30255484012270        0.16278297681164        1.50198620280979
C          148.63471968257997        0.20161984764329        1.29538318922051
C          149.29362248754833        0.16273033132284        0.04980744150385
C          148.66920704642109        0.14372631504956       -1.21333358958530
C          149.32047743198683        0.06318565177077       -2.47022366788859
C          148.35911097996043        0.08994140768240       -3.44447562931718
C          147.09312553696654        0.19906786730296       -2.80910750233473
N          147.33076683879111        0.21541637491580       -1.46033428137692
C          145.83644920014669        0.26380528364683       -3.42724899472486
C          145.83080434823927        0.28230437349837       -4.90769190685229
C          146.49955466715167        1.28072915930928       -5.61848507671563
C          146.50375397506482        1.29601994644481       -7.00122200652967
C          145.84838684076340        0.29634158231131       -7.73598558281485
N          145.81901573494395        0.33380986628197       -9.12733018671320
C          145.44800965712457       -0.89730460739712       -9.82563872259168
C          146.87034011982036        1.10145896618635       -9.79702015282627
C          145.16762986448126       -0.69954829997744       -7.01964592664443
C          145.15921677581713       -0.70073830970626       -5.63675286772347
C          144.61093834384306        0.30753603499338       -2.75886841678251
C          143.32985908382636        0.44701647503056       -3.42662576854105
C          142.38931367898329        0.43133060195872       -2.45870156383907
C          143.09803718212163        0.29623999050666       -1.20231905526935
N          144.42873856185332        0.23782781289424       -1.41055477973138
H          141.33868058223658        0.00146100812466        2.69081555574297
H          143.21334126826756       -0.05475087916131        4.59537829583071
H          145.12342583640765        0.25125459908421        0.84355773173262
H          144.77970675220399        1.93522644305915        5.23768997928621
H          144.79410091935688        1.89356458755798        7.66120314971490
H          145.09641209814174        0.67987610269583       11.00208392848415
H          145.15148377184505        1.90539354797414        9.73368251018608
H          143.96193094628285        0.57859427689477        9.63349854094255
H          147.33326115436014       -1.50046354939039        9.62752340927975
H          145.62585890393891       -2.01865033665392        9.57646551227129
H          146.24933425464346       -1.07931351243132       10.95463879066428
H          147.07707758277351       -1.76462993168267        7.55677422105255
H          147.04308287578601       -1.69720665823870        5.13387709940470
H          148.54681680872491        0.35475823548574        4.58941073426704
H          150.41744435706684        0.33649830409528        2.65758319890049
H          150.38749170766948       -0.01273397471527       -2.60432082869829
H          148.51357524847057        0.02680408893964       -4.50922715912897
H          146.60780276243463        0.26354489127063       -0.75020663588466
H          147.00604001557988        2.07353815699593       -5.07843850929448
H          147.02065905699081        2.10430568503645       -7.50234969936091
H          146.10009802395120       -1.73197415014474       -9.54485908506273
H          144.41291303321850       -1.15064037515204       -9.59494446951171
H          145.52386949284792       -0.72999686331094      -10.89952915081108
H          147.86738825101497        0.78479453737856       -9.47155915699442
H          146.78297190299440        0.95675098166777      -10.87321673505029
H          146.73989982408631        2.16342582353748       -9.58631476577996
H          144.63509207188167       -1.48897233523008       -7.53408351881922
H          144.64201426215956       -1.49564557888721       -5.11041324322612
H          143.18974990122874        0.55952777994573       -4.48951584639258
H          141.31874238912997        0.51342613833408       -2.55886770361555
