496
 energy: -950.664235309296 gnorm: 0.000853276957 xtb: 6.5.1 (b24c23e)
C          119.63662430519753       -0.04539611685832        0.00475472829464
C          120.23096828904072       -1.27727107634959        0.24413072185374
C          119.56433377998741       -2.51473362349425        0.46847473638475
C          120.51530980562917       -3.47623870059211        0.66007037415922
C          121.79406718991605       -2.85404586383501        0.57104762416378
N          121.57170807307617       -1.53252666545985        0.31110303626794
C          123.05186280768716       -3.45719125543896        0.68663975204592
C          123.06571982204082       -4.91033022316477        0.97658253739016
C          123.65534991648285       -5.80321061660726        0.07632412365369
C          123.66513430620361       -7.16119306907187        0.33736646191937
C          123.08348189918213       -7.63107699792193        1.51142194244088
N          123.08979961147865       -9.05675328580933        1.78986554494000
O          123.61913811359432       -9.77918996887348        0.98492513697016
O          122.56400165326508       -9.42799772114601        2.80746677532088
C          122.49424642876740       -6.75912299322460        2.42231875098922
C          122.48584902672606       -5.40324552718265        2.14954397154215
C          124.27744550931449       -2.79931129348889        0.54984292721800
C          125.56605003324317       -3.44394530089697        0.73094609182439
C          126.49974354637541       -2.49229148120468        0.52864891151021
N          124.45061080366244       -1.48060078183666        0.26248328424940
C          125.78266952983695       -1.26608105358289        0.23673652215469
C          126.43536460928634       -0.05087881347917       -0.04886027682179
C          125.81349256524068        1.17796348893398       -0.33877515972721
C          126.46936636198387        2.40022956456460       -0.64253114226097
C          125.51298401752190        3.35488870842477       -0.84909082142295
C          124.24061093175224        2.74715222364449       -0.66156170936873
N          124.47372816205896        1.43092128110620       -0.36418824497778
C          122.98403307161455        3.35184046050711       -0.78187113676698
C          122.96741975626419        4.79766780966940       -1.10247504934980
C          122.34622362111217        5.25323433440563       -2.26975437428593
C          122.32723213258350        6.60153376394492       -2.57634145776942
C          122.93130081807371        7.50430744989084       -1.70586739904351
N          122.91378470984488        8.92181478961282       -2.02202424430795
O          122.34798912233005        9.26123519662345       -3.02923601897610
O          123.46665600336122        9.66992005844906       -1.25715414371442
C          123.55227976329874        7.07235238317515       -0.53742464868579
C          123.56946923750793        5.72139620783489       -0.24228368636055
C          121.75761635300810        2.69842535250569       -0.61739767559321
C          120.46218771931115        3.35893742158627       -0.68059261509844
C          119.53659902948083        2.40528248670130       -0.45757253903759
C          120.26516560674746        1.16604796141761       -0.24849746182614
N          121.60048425735657        1.38254356479871       -0.34359766330742
H          118.55150948361143       -0.03860613010545        0.01713312927777
H          118.49355738447633       -2.64053875782446        0.47201667625620
H          120.35121643446703       -4.52652318263455        0.83808881031009
H          122.30465707065376       -0.84318117995347        0.18156272902830
H          124.09254771806870       -5.42614659502928       -0.84080319619192
H          124.11392476828603       -7.86118185809548       -0.35709816660051
H          122.05290671833393       -7.14961620995115        3.33141102496106
H          122.04268796179912       -4.71315193737872        2.85805963943232
H          125.71555598695080       -4.47922093920197        0.99077140640988
H          127.57236987745407       -2.58833042711764        0.56733485639412
H          127.53825559668216        2.52655351705240       -0.69522933785906
H          125.67330894838679        4.38674016486008       -1.11544415953503
H          123.74446407085144        0.74679980003030       -0.19111546556620
H          121.89145624537657        4.53905570682962       -2.94618685761818
H          121.85380763545824        6.96293292511698       -3.48130944295102
H          124.01005871820847        7.79579778124576        0.12648152584921
H          124.03571302342621        5.37513168318860        0.67278771773371
H          120.30769451497648        4.41121368752378       -0.85634836027232
H          118.46289683304140        2.50077602906308       -0.42299216195949
C          202.81678953241496        0.05799207834647       -0.02901015403336
C          202.20257774830529        1.23859882328523       -0.42578825682694
C          202.84929782845830        2.43115736154054       -0.85645140976814
C          201.88389566078348        3.35702747583093       -1.13336730023550
C          200.61617908616941        2.76280740492135       -0.86942124018125
N          200.85866278115859        1.48334294058705       -0.46002555046850
C          199.34945293622121        3.34317543912922       -1.00686812664900
C          199.31040898628120        4.76310051933208       -1.42625068388477
C          198.64926040565689        5.13444369567616       -2.60131819934615
C          198.61395610507526        6.45809195197087       -3.00027194610914
C          199.24169749186396        7.42083121429883       -2.21503365511439
N          199.20802069528256        8.81293657752213       -2.62890018529230
O          198.61962488815493        9.07788475328550       -3.64527556224373
O          199.77241375418785        9.61526064171846       -1.93041617406423
C          199.90207080641099        7.07321438188175       -1.04016660875419
C          199.93548326183890        5.74614793838935       -0.65258206723480
C          198.13624678527842        2.68940323524743       -0.77356161172532
C          196.83906376703797        3.33891153445654       -0.84000150708446
C          195.92287105360299        2.38998772194329       -0.55862409983955
N          197.98674455068272        1.38031609994289       -0.43359899276428
C          196.66047840873884        1.16529859554485       -0.31410463278018
C          196.02910497694222       -0.05494054238471       -0.00189683593972
C          196.66966868279340       -1.26574817760557        0.32077798944051
C          196.03333270555444       -2.50666769419530        0.58834302555937
C          197.00364481969083       -3.42875859194294        0.86694065428628
C          198.26462713350915       -2.77560071354889        0.78440959089140
N          198.01158391371123       -1.47446622545133        0.44105599201014
C          199.53057277078537       -3.34036145132511        0.97986227220555
C          199.57090725571757       -4.76395619879820        1.38336845949363
C          200.23877381127880       -5.70254882104913        0.58989784282767
C          200.27828016029721       -7.03468450163082        0.95834713909433
C          199.64759366053391       -7.43324352403998        2.13353325111089
N          199.68516727811348       -8.83143510610397        2.52486506961692
O          200.28457964063657       -9.59388128977112        1.81110548118498
O          199.11598130310793       -9.14130089340212        3.53977798026870
C          198.98004540516223       -6.51528408147361        2.93932940379988
C          198.94264722780957       -5.18609067794910        2.55953696028164
C          200.74481610498901       -2.66345409595991        0.81675221440098
C          202.05133255312148       -3.24481233445109        1.08744195458002
C          202.95962791371659       -2.29091523763481        0.80248491109210
C          202.20938748124874       -1.12479691081996        0.36954249957824
N          200.87815106654128       -1.38151099846581        0.40451341611264
H          203.90194591653972        0.07092370242650       -0.03338433849514
H          203.91725155223745        2.55000857956958       -0.94447646846409
H          202.03121886802160        4.36056587997965       -1.49794447249241
H          200.13624483130269        0.81370429311645       -0.21725093803859
H          198.17616079830520        4.37360883989736       -3.21105338238302
H          198.10963960831052        6.75440528165252       -3.91218372893160
H          200.37808551575714        7.84227152462622       -0.44379578434064
H          200.43334821875342        5.46565481222980        0.26833624713351
H          196.67369125537763        4.38243660335351       -1.05322790271161
H          194.85131370281758        2.48996999019346       -0.49889145164554
H          194.96827352386967       -2.66914696948981        0.55727699116415
H          196.86064897581906       -4.47231761452151        1.09489167190000
H          198.73049032482641       -0.77508479114864        0.28683865631196
H          200.71295744659918       -5.38269409503729       -0.33057220003736
H          200.78780878446887       -7.76942462622230        0.34659647900347
H          198.50186284459090       -6.84995102797636        3.85206173691973
H          198.43956291363907       -4.45985229546532        3.18737511085693
H          202.22450880087132       -4.24145003767276        1.45995685389454
H          204.03457620223097       -2.33810502419091        0.87604746788929
C          127.84626995541964       -0.05020850625293       -0.05151061632580
C          129.06337551722478       -0.04702385106526       -0.05100666684028
C          138.77269711796134       -0.03053575732221       -0.09085925220971
C          139.99093230752547       -0.03529081563585       -0.09433907757851
C          149.70035582504534       -0.03932895916513       -0.08282043805536
C          150.91890975250786       -0.04038826690268       -0.07690808922907
C          160.63305993838509       -0.03826140201379       -0.06216801939965
C          161.85163177539476       -0.04340665959200       -0.06055560163383
C          171.56460809382077       -0.05834197919884       -0.04902467580355
C          172.78314283113056       -0.06039860264816       -0.04374548292248
C          182.49066633616448       -0.08460775721227       -0.06725913197276
C          183.70889552275034       -0.09517263468461       -0.07352075766176
C          193.40303963475480       -0.09721378759862       -0.03280407531255
C          194.61977625126454       -0.07945040068837       -0.01252015574218
C          130.47330607556876       -0.04280392630978       -0.05430583221381
C          131.09656582979792        0.89284219526845       -0.90148105868243
C          130.44919298453158        1.83910159881886       -1.73671209884714
C          131.41300674485831        2.53041841772034       -2.41800790727445
C          132.67893965811422        2.01339703826002       -2.02951891973447
N          132.43798645099454        1.03703076704669       -1.10165342644591
C          133.93755056037452        2.41445451378323       -2.49649838642070
C          133.94650827883777        3.47158206578323       -3.53578855154773
C          134.58551855207929        4.69092042717857       -3.29035405114628
C          134.59127315864754        5.68741088506143       -4.24926135884337
C          133.95687384705016        5.46065333340227       -5.46715819765904
N          133.95779530046846        6.50473944229111       -6.47794654589592
O          133.38113639611427        6.27974324286341       -7.51063146908311
O          134.53357403410084        7.52960115358317       -6.21894008733454
C          133.32057607090616        4.25198990616525       -5.73404434908585
C          133.31613089865459        3.26381073725066       -4.76635215282431
C          135.16711879713557        1.90575040414811       -2.07440021375199
C          136.43949353456890        2.28123994957033       -2.66519955122910
C          137.38717125677786        1.59122069608982       -1.99830664142783
N          135.36230531040786        0.98982694478624       -1.08649716971428
C          136.69463742561834        0.79676036749691       -1.00358173746131
C          137.36504028584929       -0.03199028679200       -0.08101779692354
C          136.73989718444588       -0.87077271390102        0.86238923278077
C          137.38317468455753       -1.66722936303886        1.84417089462007
C          136.41881653473260       -2.35212085707591        2.53091943779144
C          135.15595137624339       -1.99571078564306        1.98394696630828
N          135.39967763529279       -1.08684889003031        0.98977853676200
C          133.89853308963006       -2.46022003420313        2.38911903357023
C          133.89283868537919       -3.49382272840595        3.45194695194622
C          134.51856172077126       -4.72633769133586        3.24139038576364
C          134.51028735130393       -5.69655394150829        4.22710590887654
C          133.87607912230777       -5.42935053286278        5.43676700074778
N          133.86589368684551       -6.44443937389672        6.47679661972962
O          133.30049757697489       -6.18037919518207        7.50637432971546
O          134.42408851441999       -7.48519179200281        6.24402845033772
C          133.25141617825463       -4.20737341201244        5.66835795498419
C          133.26059356977902       -3.24604568636002        4.67419341882509
C          132.66708072156106       -2.03542125416047        1.88534691941141
C          131.39030916177828       -2.58873982802917        2.30142179541329
C          130.44231422105375       -1.91312211663615        1.62080857002717
C          131.13958587214594       -0.95978149956662        0.78093737045205
N          132.47468022053832       -1.06518873281152        0.95141785524721
H          129.38177186892995        1.96977680034855       -1.80489751347620
H          131.26037382280302        3.33143994528526       -3.12249639474340
H          133.15717521790503        0.49749291772524       -0.63156337022174
H          135.06509617108131        4.85881199205998       -2.33311364190393
H          135.07710940284213        6.63815244100915       -4.06550939330964
H          132.83975205680503        4.09836995353098       -6.69264460539100
H          132.83599931212419        2.31330896715059       -4.96790820073676
H          136.56731336204746        2.96304963945464       -3.49015381676434
H          138.45300949775645        1.59132468987868       -2.15729613693947
H          138.44721997376058       -1.69793156502962        2.00954978905501
H          136.56740009583510       -3.03348335685747        3.35249943133315
H          134.68200479905411       -0.63623791694344        0.43207223916523
H          134.99728095613946       -4.92737427387338        2.29002963187672
H          134.98560309890470       -6.65742080609174        4.07044090278828
H          132.76868236607336       -4.02289604061031        6.62051807923099
H          132.78806242224695       -2.28606885788494        4.84611286268124
H          131.25802370737497       -3.39186136289589        3.00784652809565
H          129.37222513485202       -2.03113463019468        1.66689825478029
C          141.39823577737783       -0.03717062868179       -0.10135360472650
C          142.03313837758071        1.01206313735055       -0.79485326643060
C          141.40515306741676        2.11134653401296       -1.43338422690727
C          142.37670498222062        2.85604397886500       -2.04471032724060
C          143.62786568576874        2.22753081371229       -1.80031527262697
N          143.37258895537639        1.13244246580770       -1.02064197824424
C          144.88564125388896        2.62762735058483       -2.27175211891802
C          144.90377855620554        3.78346048754661       -3.19781625005581
C          145.64017655638744        4.92900216970710       -2.87905331160192
C          145.65768960073979        6.01480707717772       -3.73517587386519
C          144.93701123442679        5.95327444030756       -4.92428071178536
N          144.95287452813159        7.09112039607056       -5.82833344716654
O          144.31478072067091        7.00248130657329       -6.84520315476301
O          145.60157414420158        8.05136851971594       -5.50247239008454
C          144.20116903866449        4.82151936266559       -5.26293324490118
C          144.18541723236547        3.74324191383673       -4.39709027260104
C          146.10647166363262        2.03441020966379       -1.94303009890936
C          147.37481326464109        2.40784509534755       -2.54338362815124
C          148.31828315982324        1.65800229066934       -1.93718495925137
N          146.29747773698480        1.05197705209346       -1.02055176252115
C          147.62680576417151        0.82795912943256       -0.97184005438536
C          148.29324834974130       -0.04410389955864       -0.08648253906857
C          147.65714116383850       -0.93087413602913        0.80506256290995
C          148.28395967965844       -1.77361847693725        1.75769834866401
C          147.31240016519700       -2.52292533428377        2.36316018617970
C          146.06206313936471       -2.16118603854674        1.79218934785523
N          146.31806058919685       -1.17825854890680        0.87488287525655
C          144.80528446794511       -2.70633059350433        2.08666728355611
C          144.78716349642343       -3.84732293815975        3.03090738275109
C          145.50783182287805       -5.01223048707740        2.74891579948558
C          145.48931489941515       -6.08062729900242        3.62684322289955
C          144.74853182408285       -5.98161268424886        4.80090213261561
N          144.72817598258456       -7.10049147702528        5.72829029924496
O          144.07602672200360       -6.97858811919262        6.73267980136926
O          145.36592570038394       -8.07818627615694        5.43423209318096
C          144.02651127216276       -4.83053480289623        5.10228690427388
C          144.04675722938589       -3.77010939921507        4.21495375837953
C          143.58428108731960       -2.26787572390324        1.56893250033325
C          142.31642293886696       -2.93239063516015        1.81256958949712
C          141.37287443625834       -2.18916790170872        1.19823978983175
C          142.06425526748421       -1.07682676575387        0.57897995965583
N          143.39359962620799       -1.16793738069756        0.79084246948550
H          140.34652342948908        2.31006226454540       -1.41458608759429
H          142.23980572371238        3.76704284192461       -2.60384830027789
H          144.08126052338443        0.50149803364623       -0.66188987689442
H          146.18654005390670        4.96908235291356       -1.94398032440995
H          146.21954554838462        6.90898909779085       -3.49340244042621
H          143.65319937269035        4.79684861763447       -6.19719951077653
H          143.62776232353806        2.85093122290239       -4.65687827513672
H          147.50260773497948        3.12891295908615       -3.33427571603859
H          149.37983227006055        1.63868896636615       -2.12140230019717
H          149.34189591617809       -1.79219904304775        1.95961714470341
H          147.44848053298404       -3.25174483535710        3.14521888765132
H          145.61001055662589       -0.70304383140936        0.32547118543807
H          146.06899062552063       -5.08335628890129        1.82439742391269
H          146.03850169705746       -6.98975994717988        3.41331263438674
H          143.46100167115358       -4.77748262101976        6.02483100870071
H          143.49890184326713       -2.86344151473847        4.44361312838049
H          142.18871452634548       -3.85187312774352        2.36029074412669
H          140.31157995336196       -2.36713140701691        1.14063807412215
C          152.32599186724480       -0.03743718959458       -0.07604186915516
C          152.96121730863524        1.01289993108783       -0.76830194574872
C          152.33352654878715        2.11100401005990       -1.40895144354365
C          153.30548311505274        2.85618178276867       -2.01900926107308
C          154.55675876670031        2.22903189813227       -1.77185694099002
N          154.30097232410182        1.13453509408373       -0.99126453145203
C          155.81429615239793        2.62967340253511       -2.24311252798431
C          155.83121897976613        3.78408595691301       -3.17121788070356
C          156.56309132006172        4.93253453833692       -2.85275131665651
C          156.57947097221600        6.01661412779699       -3.71113218400238
C          155.86257584891311        5.95009758285717       -4.90223047901478
N          155.87726470532735        7.08611843919894       -5.80873945607953
O          155.24879864622008        6.99005221946618       -6.83089804510074
O          156.51789894734816        8.05101089742576       -5.48081910758942
C          155.13153512724512        4.81521186111383       -5.24070520669098
C          155.11646048516252        3.73888364538680       -4.37241348736865
C          157.03599252669920        2.03809976022928       -1.91465673096051
C          158.30335445220069        2.41264351781723       -2.51634612861248
C          159.24800331517571        1.66280889120458       -1.91195441888349
N          157.22874004126240        1.05586466516693       -0.99244771008354
C          158.55829276843798        0.83222294482672       -0.94593060200786
C          159.22599412972602       -0.03967250534829       -0.06146275685193
C          158.59038874970872       -0.92252134069357        0.83439383106014
C          159.21750841259876       -1.76141248529163        1.79010149765742
C          158.24555763714258       -2.50513314927729        2.40189302525190
C          156.99483807865388       -2.14422892759571        1.83125074255916
N          157.25094985033289       -1.16708581913901        0.90794742386251
C          155.73769431362987       -2.68611551361328        2.13064639395337
C          155.71999641488347       -3.81867048122241        3.08525771571790
C          156.43770761770855       -4.98758896009276        2.81271126358277
C          156.42110191576191       -6.04655414912881        3.70208952966585
C          155.68555933381759       -5.93369527416162        4.87817485826270
N          155.66897820917353       -7.04174464782548        5.81863288318841
O          155.02517528357123       -6.90603681361834        6.82663074240823
O          156.29923530718065       -8.02578065022674        5.52974684363666
C          154.96582083953874       -4.77869247834385        5.16979220394036
C          154.98376919879922       -3.72798725609631        4.27092233725395
C          154.51639181862643       -2.25246987936068        1.60997445188075
C          153.24988471672771       -2.91801539782285        1.85782370622062
C          152.30525013216834       -2.18228199450226        1.23627549713320
C          152.99412707425944       -1.07249508531707        0.60984351159276
N          154.32341518162517       -1.15851095644877        0.82372967682830
H          151.27481114300411        2.30900021237017       -1.39210286099089
H          153.16876807436728        3.76649025721837       -2.57931060170852
H          155.00918244350248        0.50407324498957       -0.63074109643064
H          157.10686568555425        4.97617810917924       -1.91633236447003
H          157.13767375587994        6.91316259048869       -3.46965961528357
H          154.58648553608327        4.78671462326603       -6.17656640631677
H          154.56222116669593        2.84429382426511       -4.63167348176280
H          158.42977469017748        3.13449985491728       -3.30673292863671
H          160.30935591348864        1.64437530829203       -2.09734054522966
H          160.27582123540773       -1.78100338656578        1.99001100236673
H          158.38183979161522       -3.22983630152125        3.18772250891492
H          156.54309990743295       -0.69324781108255        0.35708980397497
H          156.99535732973689       -5.06927678307501        1.88694646331002
H          156.96832973605822       -6.95863708406068        3.49623919593089
H          154.40411559425064       -4.71492942667802        6.09397836401183
H          154.43766916536302       -2.81830820445975        4.49168570083967
H          153.12399977712056       -3.83329566699692        2.41296408769577
H          151.24448876988851       -2.36310174761723        1.17933447644672
C          163.25869944309738       -0.04548935565231       -0.06376003641154
C          163.89581374156538        1.00168341309936       -0.75904280339564
C          163.27002274296683        2.10013296235735       -1.40107643308726
C          164.24286159145888        2.84111125347690       -2.01475627521039
C          165.49290458720569        2.21119250587275       -1.76829705835107
N          165.23545705010042        1.11908751434005       -0.98475686078443
C          166.75077611678341        2.60780027347018       -2.24185433232989
C          166.76979565424384        3.75968646330972       -3.17296893598536
C          167.50608053489574        4.90657821293505       -2.85894805562435
C          167.52514322964217        5.98800542272877       -3.72059406457716
C          166.80644324451342        5.92044550440967       -4.91055571570938
N          166.82439089896110        7.05344181278959       -5.82077776342287
O          166.19446083400368        6.95639125650284       -6.84194501130257
O          167.46792938408043        8.01749125238880       -5.49609726829240
C          166.07071928573990        4.78724025106776       -5.24446939608455
C          166.05304311296894        3.71356108438181       -4.37294782664769
C          167.97148089691990        2.01458123017529       -1.91223120475902
C          169.23956426715796        2.38522064821568       -2.51471707195421
C          170.18293731359995        1.63621907854350       -1.90723628957008
N          168.16232237910344        1.03486166062111       -0.98705396984873
C          169.49161606416968        0.80963131369318       -0.93902974211283
C          170.15757172951453       -0.06061105317467       -0.05167792308101
C          169.52040711145929       -0.94344774417317        0.84302067353182
C          170.14613486780505       -1.78427782577080        1.79785758879680
C          169.17333750053950       -2.52929803775434        2.40671860471214
C          167.92342754265960       -2.16663791946403        1.83555036627461
N          168.18077417816625       -1.18775936984947        0.91457955137450
C          166.66557147202712       -2.70790335415901        2.13366239679847
C          166.64776941699998       -3.84377379494721        3.08433521185586
C          167.36436151686297       -5.01211536557224        2.80627903122525
C          167.34909241897046       -6.07414980267211        3.69197889675271
C          166.61593638986236       -5.96503296671355        4.86991349487058
N          166.60074764696174       -7.07635231304441        5.80652643367336
O          165.95908514654141       -6.94385784196273        6.81631484685152
O          167.23147986051561       -8.05895099290570        5.51380068986597
C          165.89733547741903       -4.81071596749321        5.16697261692659
C          165.91394876080324       -3.75685943791447        4.27173436104778
C          165.44481565728626       -2.27007345976814        1.61566454218308
C          164.17652410506574       -2.93172959347764        1.86484745557444
C          163.23312163017906       -2.19135331698553        1.24697303563471
C          163.92466142048690       -1.08305711251409        0.62063659142192
N          165.25393890535946       -1.17400606078306        0.83162046582670
H          162.21187777080635        2.30101928133407       -1.38286646416876
H          164.10763133684418        3.75045938158592       -2.57697875069069
H          165.94263587396227        0.48755253661597       -0.62409245034551
H          168.05132038917517        4.95115475498231       -1.92342379206815
H          168.08696229397313        6.88323706096860       -3.48263886407281
H          165.52424120130115        4.75788519771974       -6.17947266121893
H          165.49527038762952        2.82019127090778       -4.62882217617214
H          169.36740215886439        3.10411479002444       -3.30756754520323
H          171.24428461825266        1.61544195303122       -2.09233483243821
H          171.20418714019823       -1.80464749714645        1.99892963030235
H          169.30855772198834       -3.25580857569051        3.19105563864498
H          167.47366603267415       -0.71269693936114        0.36382897207255
H          167.92031895220677       -5.09071364388319        1.87922713961457
H          167.89558194082397       -6.98571734097163        3.48191651586439
H          165.33762058930424       -4.74985542548222        6.09255934675659
H          165.36895514761687       -2.84759964444440        4.49689620776423
H          164.04865485004240       -3.84753260760400        2.41867534196996
H          162.17157755136481       -2.36827542779612        1.19211490883625
C          174.19024500116319       -0.05932749071102       -0.04543850001819
C          174.82454470949662        0.98854986546106       -0.74226796799758
C          174.19553166849869        2.08620392202023       -1.38273774035675
C          175.16587814197328        2.82982366744542       -1.99707867496223
C          176.41750308096823        2.20201238627326       -1.75331987651014
N          176.16348064432086        1.10881179903867       -0.96997451480993
C          177.67376943916764        2.59989769364355       -2.22941973363698
C          177.69163931546964        3.75282410050847       -3.15911228472788
C          178.43153383755194        4.89772434029558       -2.84619283502567
C          178.45184493923756        5.97931689510446       -3.70758739685412
C          177.73062922083705        5.91397651017731       -4.89615776386802
N          177.75078472895643        7.04664311969146       -5.80668410340740
O          177.11914055175609        6.95125324472870       -6.82697879382164
O          178.39830701085796        8.00853861853829       -5.48354023246128
C          176.99076863880154        4.78303862793137       -5.22864764038709
C          176.97193456249892        3.70915672185863       -4.35740702422720
C          178.89492978364575        2.00455534005605       -1.90469234625527
C          180.16133501621877        2.37312082611852       -2.51188676255799
C          181.10517264587958        1.61960748808448       -1.91076418612816
N          179.08683200912895        1.02258205713276       -0.98245240631081
C          180.41573826927967        0.79303205347620       -0.94113910568347
C          181.08348031479125       -0.08100490762139       -0.05945149483172
C          180.45071719357801       -0.96053695388020        0.84129046024893
C          181.08170362772631       -1.79833602835394        1.79545323391954
C          180.11145113762763       -2.53672658441045        2.41642952868864
C          178.85820622738859       -2.17370637248019        1.85285163483237
N          179.11104533377940       -1.20079413242395        0.92446139950463
C          177.60063835565782       -2.70949088450446        2.16210861157317
C          177.58392717147873       -3.83693393115382        3.12258459372369
C          178.29823756846682       -5.00889526034457        2.85394479420963
C          178.28410566558853       -6.06225970726604        3.74996695073817
C          177.55411704757998       -5.94097249974557        4.92869963413983
N          177.54030369152960       -7.04294677685959        5.87621866453772
O          176.89854274106148       -6.90122979437311        6.88474923872007
O          178.17283368276290       -8.02736070585272        5.59365126649964
C          176.83736395521936       -4.78308523911089        5.21626177080519
C          176.85301955548269       -3.73793489389018        4.31091103207013
C          176.37895688755535       -2.27307609292256        1.64505799501620
C          175.11086929483258       -2.93263673403474        1.90072561585606
C          174.16701973420689       -2.19725860901301        1.27767507236822
C          174.85777659795434       -1.09295324569818        0.64333153994203
N          176.18722730769267       -1.18241311575629        0.85363459611289
H          173.13706946194125        2.28517440313220       -1.36236293743841
H          175.02803455075909        3.73949682823995       -2.55815009362598
H          176.87295746128018        0.47868919088678       -0.61134252081692
H          178.97900351289522        4.94041707516742       -1.91188529203067
H          179.01684667452116        6.87282168810143       -3.47067685392193
H          176.44232691253515        4.75541729743685       -6.16255068529637
H          176.41138128172571        2.81730486298665       -4.61249042206500
H          180.28774998995917        3.09356714910488       -3.30354742049152
H          182.16562795431787        1.59613750024416       -2.10076261614071
H          182.14132463722046       -1.82056923533448        1.98832712086472
H          180.25073211843534       -3.25901122262640        3.20395483971483
H          178.40048626254239       -0.72683247221679        0.37720810766383
H          178.85140515827419       -5.09738690174974        1.92611770758836
H          178.82898911207798       -6.97646437949229        3.54730740645951
H          176.27996091558822       -4.71268614081697        6.14256983308847
H          176.30958002551262       -2.82594913647128        4.52871137977874
H          174.98358424051560       -3.84432656876619        2.46144024775570
H          173.10547926215551       -2.37472191514763        1.22504508527184
C          185.11638163997205       -0.10126492830901       -0.08116562462183
C          185.75097105432906        0.96882977799233       -0.74223941297029
C          185.11801739181502        2.08039109676236       -1.35506600018685
C          186.08749170879557        2.85341964780408       -1.93275849771891
C          187.34321960269125        2.23309882009312       -1.69030434223588
N          187.09113950551648        1.10962207296807       -0.95009247004513
C          188.60238586566788        2.67581264041642       -2.11566184324371
C          188.61777871073235        3.86726019970178       -2.99616041813899
C          189.30788463833116        5.02158889957450       -2.61302768195553
C          189.32656960537722        6.13455738288212       -3.43376884159708
C          188.65363035069549        6.09156673862497       -4.65131356028603
N          188.67406497882257        7.25638053686130       -5.52025870188419
O          188.08341920444789        7.18012029468761       -6.56651208698611
O          189.28053694943830        8.22393935947537       -5.13963274608059
C          187.96173165715896        4.95249440624088       -5.05224811628011
C          187.94408048220723        3.84701769706178       -4.22151042974076
C          189.82670585917771        2.09189710156326       -1.78261713708828
C          191.10605367295153        2.53396747146145       -2.30913346310630
C          192.04535241877889        1.75929333587375       -1.72867797550997
N          190.00742249520766        1.04833058383489       -0.92876758248551
C          191.33887207006862        0.84063511671919       -0.85809799156005
C          191.99466588713861       -0.11029172207327       -0.05256508135666
C          191.36301551617782       -1.08540302579999        0.74205384548577
C          191.99984682394992       -2.02004832102151        1.59819548883718
C          191.03100625497586       -2.80691852621293        2.15865524594090
C          189.77326774522487       -2.37832421729433        1.65360853004487
N          190.02285497652815       -1.32601989572550        0.81562234111098
C          188.51201244569859       -2.91432694914790        1.94630954826549
C          188.49068200381751       -4.10181274765095        2.83182557865214
C          189.16681038442491       -5.27129819407371        2.47041515590086
C          189.15135345378860       -6.37751366381764        3.30041737839934
C          188.45822528314406       -6.31242153482019        4.50558030275044
N          188.44573312172548       -7.46910825451731        5.38516909637359
O          187.82980814097624       -7.37791742823770        6.41548852214513
O          189.05440658991219       -8.44500186836525        5.02967158283203
C          187.77829670846114       -5.15847435995343        4.88415921119002
C          187.79527492136447       -4.05987667089481        4.04457435365416
C          187.29031228714535       -2.42213181492614        1.48253732768236
C          186.01418571069706       -3.07146286370873        1.72424261773629
C          185.07513065756766       -2.28937696217145        1.15334753871491
C          185.77699207166273       -1.16723887130277        0.56319179478279
N          187.10695941907343       -1.28772578247481        0.75282500887777
H          184.05713805214191        2.26688365942709       -1.34273575411837
H          185.94697737746921        3.77874166065036       -2.46695976416444
H          187.80368175967078        0.47510065734867       -0.60547251049234
H          189.81778682367076        5.04638801086367       -1.65709853173028
H          189.85390412175670        7.03522587218685       -3.14321004125836
H          187.44948335593634        4.94321801128324       -6.00683585146545
H          187.42074272932021        2.94913822739530       -4.52915294261597
H          191.24471177359274        3.31719114606077       -3.03645701869379
H          193.11324756218178        1.77715074689388       -1.87369055349542
H          193.06284857095253       -2.07197092147189        1.76821737876404
H          191.17416056131296       -3.60473621426583        2.86880376779527
H          189.30874967329575       -0.79598130316620        0.32748902933711
H          189.69146926258662       -5.31496219357897        1.52305738743540
H          189.66732582426084       -7.28985629030048        3.02630246970300
H          187.24887219150074       -5.13257446062156        5.82900714064490
H          187.28120455184214       -3.15064929108409        4.33359054150565
H          185.87839947042522       -4.00761404542602        2.24093101956130
H          184.00989610682706       -2.44582760722461        1.10778818688516
