111
 energy: -193.131847869089 gnorm: 0.000284708479 xtb: 6.5.1 (b24c23e)
Zn          18.67807362270747       -0.02794152588816       -0.01894834457272
C           15.24791487998619       -0.03976464587609       -0.03618778814266
C           15.87980860107550       -0.83902485202052       -0.98263689692199
C           15.21526876373499       -1.66216914141833       -1.95784116776053
C           16.18153340706494       -2.27140423196865       -2.68969577653016
C           17.44735511805661       -1.82810684005448       -2.16959889711640
N           17.22919837138569       -0.96395220200144       -1.13732225291552
C           18.69569870135783       -2.21279723447200       -2.64569282911717
C           19.93601693983153       -1.80609815751823       -2.16801973063598
C           21.20322951117562       -2.21960303812571       -2.70186046646242
C           22.16339319408578       -1.60542703703068       -1.96442750331761
N           20.14943391690525       -0.95207219054045       -1.11999695998120
C           21.49379635016108       -0.81494520924399       -0.97049180147227
C           22.13566201472567       -0.01952215548608        0.00091721695986
C           21.47915799787510        0.77377408934707        0.96411432606475
C           22.13373089728702        1.56846961321561        1.96469734469133
C           21.16223098767282        2.17926756168794        2.69004701724608
C           19.90312864631733        1.75915612190405        2.14221608581379
N           20.13257430304370        0.90475290519767        1.09794597706107
C           18.65518049877885        2.15990618015541        2.60488551613308
C           17.41441486522526        1.76659582587938        2.11606905832625
C           16.14051075311095        2.20186227570576        2.62298761847263
C           15.18567857143939        1.58421694618395        1.88318871122198
C           15.86535443100415        0.76450065909823        0.91561549176402
N           17.21230406572269        0.89921161664700        1.08314560192880
H           14.16235211202190       -0.04373187523240       -0.04106746829697
H           14.14475799411819       -1.75245082984269       -2.05853559367083
H           16.06209280593644       -2.96141517811041       -3.51060833459646
H           18.70364620064997       -2.90403842563299       -3.48296715106986
H           21.33067112184906       -2.89152905901903       -3.53622578380457
H           23.23302081553705       -1.67155014077142       -2.08196853409573
H           23.20178394940814        1.63999669841442        2.09372555935018
H           21.27684662626645        2.85278857073711        3.52497724775381
H           18.64958368565432        2.85265728208330        3.44094848225148
H           16.00823940215945        2.89258625495162        3.44132192147081
H           14.11363107548589        1.66679619352210        1.97353648310762
Zn          40.59321198812219        0.00986589697721       -0.01243146991555
C           44.02272495366646        0.02522284036619        0.01540211523432
C           43.39202530985123        1.26013364322653        0.12107118506215
C           44.05778905298266        2.53009741056215        0.23977460187781
C           43.09253056082482        3.48060346236506        0.31263588417672
C           41.82607108168934        2.80231992327470        0.24011616548523
N           42.04290375218141        1.46070257547052        0.12547320514815
C           40.57845179006981        3.41486398897550        0.27675945435427
C           39.33754753253757        2.79209587669872        0.21096122872145
C           38.07069309952615        3.46753212149434        0.24149102465064
C           37.10986420281160        2.51237945551325        0.15466305522518
N           39.12337690772718        1.44438564170172        0.10658003589676
C           37.77900811451618        1.24465029524679        0.07399390251502
C           37.13665531347060       -0.00586874337049       -0.03183876690377
C           37.79117766425727       -1.25025959967354       -0.13427248405771
C           37.13450261575055       -2.52378374185818       -0.22599082487541
C           38.10498789730058       -3.46983274976257       -0.30501589388866
C           39.36524256127551       -2.78299450417704       -0.25766036224094
N           39.13758259479548       -1.43757254850645       -0.15274917609687
C           40.61268418315620       -3.39405020832127       -0.30794494025575
C           41.85399715944450       -2.77028423194604       -0.25062595036480
C           43.12738972875171       -3.43732604257006       -0.30337941381031
C           44.08297074245019       -2.47872026798328       -0.21168487990450
C           43.40431583358593       -1.21483022420882       -0.10188299868026
N           42.05720167035550       -1.42708992909317       -0.12949145229791
H           45.10825645808362        0.02969757419166        0.02487018801337
H           45.12837236450092        2.66269088657878        0.26271027720798
H           43.21307835888788        4.54867086124458        0.40741488458712
H           40.57173784897505        4.49706308705402        0.36466162014164
H           37.94404256025356        4.53624408566955        0.31694777256789
H           36.04019147259540        2.64709279458391        0.13892232476592
H           36.06590392682631       -2.66802269809729       -0.22367491656123
H           37.98902491651866       -4.53944053351510       -0.38504185227109
H           40.61737771611899       -4.47603115819016       -0.39861830554861
H           43.25886534975308       -4.50404568851277       -0.39864759649968
H           45.15491381396724       -2.60195136930816       -0.21647711469844
C           23.54569176599180       -0.01757813126007        0.00914966723150
C           24.76303093321161       -0.01937976216569        0.01228305620705
C           34.50944565590385       -0.01716479652583       -0.03140408462729
C           35.72661078976107       -0.01208754656558       -0.03299887545768
Zn          29.63646823392672       -0.02058006535174       -0.00464945329753
C           26.17268979546873       -0.02054895870352        0.01235604057142
C           26.82574116766358        1.08116587717815        0.60219850218313
C           26.16789669802273        2.21241483103363        1.19174329062569
C           27.13733190401378        3.04586494876241        1.64917828267396
C           28.39727666128976        2.43309716505701        1.33762787135972
N           28.17192326063526        1.24318569531461        0.70032597296247
C           29.64426936197246        2.96616546203242        1.64068834043242
C           30.88826787578458        2.42028127965520        1.34835769111100
C           32.15158027016916        3.00596786768431        1.69631899440893
C           33.11645909101968        2.17116650818237        1.23174492034861
N           31.10699300068348        1.24539065117683        0.68159653867198
C           32.45222057325321        1.07115064515943        0.59225898952307
C           33.09981465335163       -0.01877229024510       -0.02463412462469
C           32.44705375578300       -1.10981011840213       -0.63374656789875
C           33.10535530135472       -2.20987642384008       -1.27939631346606
C           32.13612295873324       -3.04640966313603       -1.73171932295403
C           30.87619252012806       -2.46176394666127       -1.36978607231363
N           31.10115246545562       -1.28566746840812       -0.70736939278064
C           29.62931140993652       -3.00958935418394       -1.64562755589991
C           28.38564066193112       -2.47706891169674       -1.32831104748986
C           27.12286634446555       -3.09199138978540       -1.62341673680582
C           26.15798620450321       -2.25750877355307       -1.15836674732060
C           26.82129010176866       -1.12374844445685       -0.57998388597209
N           28.16643167357055       -1.28556746030423       -0.69166887270641
H           25.09940018316991        2.34772044524833        1.24105317494583
H           27.02032285985286        3.99388965875928        2.15059774768607
H           29.64700543119007        3.91704619573672        2.16509201143384
H           32.27385784483837        3.93516660390624        2.23060352309456
H           34.18571892646709        2.28076163682912        1.31660676875040
H           34.17381127247043       -2.31848386316604       -1.37577025521201
H           32.25312455026238       -3.97622591435226       -2.26617022248864
H           29.62629887744761       -3.96155252438988       -2.16809855683856
H           27.00080448643524       -4.04199751589653       -2.11984155146810
H           25.08925218168640       -2.39465315533043       -1.19396265058415
