209
 energy: -347.109927290711 gnorm: 0.000579321239 xtb: 6.5.1 (b24c23e)
Fe          33.52227707753175        0.04738073258158       -0.02902728107857
C           30.14320376763349        0.14851490883482       -0.13572751911859
C           30.78154515403330        0.90015402892664        0.83014769473625
C           30.09941043522171        1.68246186179844        1.81563850782875
C           31.05092360685153        2.36976706618460        2.49210861804256
C           32.31215097622189        2.01992008282960        1.90545969401937
N           32.13683800043970        1.07992045295148        0.92697143870507
C           33.52470803346390        2.62003007146038        2.23800557446468
C           33.52825731018504        3.72646452915650        3.21791547519734
C           32.76186798270275        4.87664748175753        3.00522715256844
C           32.77634031421691        5.91450894019747        3.91687605703649
C           33.55299356784872        5.83009116548074        5.07966725448762
N           33.49164965074931        6.87090511303326        5.99200881581601
C           34.57985986398813        7.06939138772502        6.93945175226178
C           34.30751818690301        4.67484674276555        5.30625675975463
C           34.29908220136976        3.64667088559313        4.38001009382683
C           34.73220987881290        2.22102255280186        1.67772326329808
C           35.98747271010452        2.86457251743043        1.92755501259334
C           36.93829552749383        2.12327118730382        1.30757314780917
N           34.91391587714492        1.12837542144430        0.86418099647103
C           36.26049812336552        1.03673318545388        0.67407926622200
C           36.92341483212639       -0.02527094739652        0.04430299503646
C           36.24424134068294       -1.06670494671900       -0.60253078163697
C           36.90162165191787       -2.18999511579412       -1.19180248725090
C           35.94544795647047       -2.90669649535482       -1.83225259741002
C           34.70894293225670       -2.20775209032847       -1.64506856667153
N           34.90341392837787       -1.10855563499734       -0.84271450174381
C           33.51205531788754       -2.55884583989590       -2.25718456551718
C           33.50357624254243       -3.68600141423784       -3.21326881691248
C           34.33147235203752       -3.67665357867126       -4.33811374744153
C           34.32454363995839       -4.72519970647089       -5.24139183152459
C           33.49500314216763       -5.83043075632665       -5.02801857443461
N           33.41636541858879       -6.88681935543784       -5.92101307879033
C           34.53619664534913       -7.17117636876358       -6.80787719667771
C           32.66049818910876       -5.84369945739780       -3.90292266477548
C           32.66262600554842       -4.78561184764844       -3.01481682091670
C           32.31835919420665       -1.88508013623642       -2.00619049414474
C           31.07824621545584       -2.16751894168083       -2.66917638110302
C           30.13105935771431       -1.40550643499114       -2.07124175826889
C           30.79547720385274       -0.64989350359945       -1.05330304056354
N           32.13996432548389       -0.91749863049418       -1.05607097554414
H           29.06005503395046        0.18340178359854       -0.17249855456313
H           29.03037344081535        1.69077159130208        1.95851198917370
H           30.92121460521875        3.05027304875719        3.31801427061893
H           32.17133412908111        4.96534669820274        2.09994267125282
H           32.18552809581868        6.80592159165817        3.73407227095232
H           33.17134928879658        7.73882863059571        5.58018393514604
H           35.55130243702556        7.11244941785874        6.43388883856918
H           34.59148327517229        6.25983326209661        7.67049691590367
H           34.40381117380949        8.00923960114986        7.46262368432045
H           34.90127317853664        4.57152933597252        6.20615620874045
H           34.88130638519676        2.75191707369412        4.57191206103488
H           36.11579785250196        3.77103587882973        2.49648512567659
H           38.00386110025403        2.28472885512398        1.27583903805752
H           37.95792432589673       -2.39252572731020       -1.11590005852559
H           36.05844752476667       -3.82902791097749       -2.37848666094899
H           34.97166408340746       -2.82042927742713       -4.52090040160635
H           34.96463672569572       -4.67639735968364       -6.11372064922307
H           33.02552158344475       -7.72466497105362       -5.50772450925240
H           34.63281969978731       -6.38082745488494       -7.55346935746759
H           34.32978378900806       -8.11076358501353       -7.32031713543325
H           35.47696510206325       -7.26008301677274       -6.25275475262175
H           32.01090728257227       -6.69551027372256       -3.73104594020671
H           32.02472556478665       -4.81864177602768       -2.13837698997534
H           30.95962544884834       -2.85609107070855       -3.49005863225962
H           29.07561338764714       -1.34844465309193       -2.28593082527760
Fe          65.46332425220231        0.03402393267638       -0.06362220494175
C           68.84492025421284        0.09055772441554       -0.14452447078825
C           68.20496181624208       -1.00992507062895       -0.67806772100592
C           68.88639305678589       -2.14561039759038       -1.22067118995649
C           67.93519064559041       -2.95328562584139       -1.74797073537735
C           66.67513422543844       -2.29898232769141       -1.54420970729189
N           66.85033340923337       -1.13770134565802       -0.84218077530000
C           65.46470235935743       -2.75196440450665       -2.06386831786137
C           65.46285502812343       -3.95528246265176       -2.92261588706521
C           66.23276292929594       -4.00567679623792       -4.08880069209096
C           66.22047699606938       -5.12662249493655       -4.89619828023980
C           65.44267796720357       -6.24077557480342       -4.55570498739262
N           65.50676430744402       -7.36329016855353       -5.36549473288557
C           64.41803939168959       -8.33061008038349       -5.35064409543469
C           64.68429784511521       -6.20256692691148       -3.38159918830287
C           64.69033277517434       -5.06938950770426       -2.58704627391856
C           64.25841399589329       -2.10893174049975       -1.81430272626241
C           63.00805224162339       -2.48892881655027       -2.40120006293872
C           62.05635457129495       -1.70457691535919       -1.83829794455435
N           64.07357771571540       -1.06515330844226       -0.93966257750530
C           62.72862580032970       -0.84449085831999       -0.91645596506947
C           62.05985498269130        0.01987741398677       -0.03948582928159
C           62.73284361991445        0.87471054894927        0.84396697291812
C           62.06649989286435        1.70583158924100        1.79605295492936
C           63.02212905545321        2.47038087194489        2.37920749929326
C           64.26751052712820        2.11538528483179        1.76636491067807
N           64.07725954255815        1.09661913910791        0.86300453502523
C           65.46949104132575        2.77008209608985        2.00435459801535
C           65.47620634991549        3.94525511816367        2.90111215563016
C           64.67288247847402        5.05545991449762        2.63146099440091
C           64.67800504878456        6.16216696042891        3.46251683963263
C           65.48064736508628        6.17687382258072        4.60733482363753
N           65.55700058083821        7.27421444156564        5.44997417435811
C           64.45003933316241        8.21884155662682        5.51128187932864
C           66.29088085049801        5.06733678872245        4.88073375053331
C           66.29100013418318        3.97325058548278        4.03725561798921
C           66.66931603954258        2.36569149723639        1.42263842479822
C           67.91456805884079        3.06003941894392        1.57889456091473
C           68.86267655760383        2.30718173632309        0.97107498969545
C           68.19419765845343        1.16031542904514        0.43575748486676
N           66.84696669785386        1.23145286517408        0.67924451533948
H           69.92860769442994        0.11187670298559       -0.17550862391412
H           69.95471471881508       -2.29086378758249       -1.19029152735136
H           68.06426461850609       -3.90920989601187       -2.22918516065875
H           66.82470248305664       -3.14349903111750       -4.37584677614703
H           66.81408268499315       -5.14826672562350       -5.80408780105600
H           65.82971475984664       -7.15592339587212       -6.30263264961050
H           63.44726621558756       -7.84705295926127       -5.50864065729374
H           64.40322597800943       -8.86229583684093       -4.39824862122513
H           64.59628149605462       -9.05063653371247       -6.14929337150888
H           64.08931312904825       -7.05629988233864       -3.08128967769509
H           64.10461425389694       -5.05541233750184       -1.67428015383477
H           62.88383991977125       -3.25117606267871       -3.15313773854367
H           60.99344737471866       -1.70002831655584       -2.01921210785697
H           61.00513192072219        1.69340806286231        1.98551390769680
H           62.90302589565120        3.20568818414873        3.15827865727618
H           64.05387320718049        5.06103142734640        1.74085404505868
H           64.05759842766317        7.01414940066740        3.21294007333482
H           65.92181387860879        7.04344484311211        6.36606810330844
H           64.38440667608022        8.77918679244607        4.57768803895039
H           64.64806211113641        8.91746233743890        6.32412972004223
H           63.49647359308321        7.71057533945858        5.69441544699192
H           66.91981404687903        5.07142523974799        5.76477339499994
H           66.90985327916998        3.11409306218811        4.27184068194835
H           68.03558155632906        4.00504778439911        2.08324373219504
H           69.92133840987373        2.49466382549240        0.88503415515089
C           42.11940346173896       -0.05756768404178        0.09749840934331
C           40.88850307423590       -0.05883961113855        0.09053451821634
C           39.54836090433628       -0.05661545578188        0.07554698825273
C           38.32218431612247       -0.04591294648772        0.06415196236650
C           43.45946222041160       -0.05222540714379        0.09475539933673
C           44.68587110688080       -0.04211145593517        0.08592483647719
C           58.09407861086407        0.02536201914968       -0.03825441593747
C           56.86314504791165        0.02483347042114       -0.03724510141995
C           55.52296800755773        0.02536429245501       -0.03527732443058
C           54.29652365497668        0.02431059205716       -0.03424617673234
C           59.43441197106853        0.02405952890957       -0.03941961954714
C           60.66064362843410        0.02295268494048       -0.03905234843797
Fe          49.49075927716498        0.01601674371657       -0.00150335367570
C           46.08417231618522       -0.02962506215756        0.06840199563587
C           46.75729155936597       -1.10514376242363       -0.52785900284479
C           46.08438296970287       -2.21758721317067       -1.11939092854932
C           47.03393317210144       -2.95661370965414       -1.74381767734030
C           48.28558045095254       -2.29837723270777       -1.51827214095319
N           48.10060522698169       -1.17780294817210       -0.74540120153969
C           49.48124529735816       -2.66973365340381       -2.12430747964234
C           49.47540916391307       -3.82334651005850       -3.05215377659076
C           49.15034774533413       -5.10468306615709       -2.59879790095352
C           49.14885644567023       -6.18058023419442       -3.46581101835016
C           49.46411719832859       -6.00475251863536       -4.81917635174195
N           49.39101154051780       -7.10212715051494       -5.66216269379236
C           50.14089418468695       -7.10791251283200       -6.91083082343256
C           49.77512824050073       -4.72185020145955       -5.27994600526376
C           49.78880206633904       -3.65210875089029       -4.40155620149582
C           50.68270548011924       -2.00721450846228       -1.89575093745466
C           51.93375511815773       -2.39674056760274       -2.47357115065987
C           52.89125038351293       -1.64227165846574       -1.88016213119878
N           50.87575178886517       -1.00498525108516       -0.97620884681532
C           52.22250612659580       -0.80087781784423       -0.93953439007408
C           52.89797478975417        0.02749241264557       -0.03223946723849
C           52.23047982693775        0.86178018311694        0.87537039602476
C           52.90253123544787        1.68014562860845        1.83335722327650
C           51.95034281101884        2.44222713360040        2.42703583669314
C           50.70287492874410        2.09252865642710        1.81791089879925
N           50.88604403861307        1.08338047655144        0.90513843562230
C           49.49829672480044        2.74191328718408        2.07259378989334
C           49.50481722512234        3.92242604674939        2.96006971133340
C           48.69856361180521        3.96768643509992        4.10013585165843
C           48.70508839238580        5.06794506308274        4.93916284739920
C           49.52290075596541        6.16560093235149        4.65197260312758
N           49.52695504828977        7.31457604001221        5.42395562187319
C           49.10178283233236        7.25969156881437        6.81560977941586
C           50.32305045680888        6.13133666761427        3.50225696984931
C           50.31888152733507        5.02420305719443        2.67673208505236
C           48.28917440797780        2.32043931215611        1.52783503726190
C           47.04053081263607        2.99432515097672        1.71940739210541
C           46.08296769910471        2.20660665290237        1.16962889395554
C           46.75326518441960        1.06741504898666        0.62921174504012
N           48.10031680575094        1.16555050070616        0.80874948536863
H           45.02085617482770       -2.38806440866976       -1.07281763093330
H           46.90132539927311       -3.85541459305877       -2.32337662446141
H           48.92177913426359       -5.25874456865639       -1.55001892340620
H           48.90396467952550       -7.17202619525117       -3.09976703645392
H           49.45425440602870       -7.98364500845757       -5.16760292888555
H           49.71900431291859       -6.37893635930398       -7.60380837258282
H           51.19952329599422       -6.87755723324872       -6.74568926301467
H           50.05244313855739       -8.10051666604648       -7.35227807535913
H           50.00367526608867       -4.55122268175016       -6.32476172074117
H           50.02147418554377       -2.65997975438614       -4.77270571629371
H           52.05967445928286       -3.16510328039381       -3.21874348248925
H           53.95684972649155       -1.65564143194470       -2.04360516105472
H           53.96463449987056        1.66446156690325        2.01798618639540
H           52.07421600471948        3.16936530358235        3.21291578039188
H           48.07602190587748        3.11435370768039        4.34626403975407
H           48.07178558780878        5.06689803718969        5.81773561835829
H           50.35593317276981        7.88032542173355        5.29021270302062
H           49.63698128426928        6.48014845251146        7.36957813606981
H           49.30706192215366        8.22936397028559        7.26899505275320
H           48.02942332357885        7.06794475485754        6.87174628463960
H           50.94832373751899        6.98490558994029        3.26260202895947
H           50.93449698479669        5.01748452165117        1.78396477527511
H           46.91910022509268        3.94915439634093        2.20428087498112
H           45.01857091999852        2.37215180719703        1.12447037035869
