126
 energy: -239.913248907306 gnorm: 0.000769835055 xtb: 6.5.1 (b24c23e)
Ni          19.01851362378951       -0.08919035918937        0.04066209204325
C           15.63019538157245       -0.19342226733033        0.06824023465547
C           16.29388563019982       -0.37415256502668        1.26392831823557
C           15.62922994026919       -0.59187147215803        2.51283862902452
C           16.58642248421123       -0.58015381208830        3.46941561482561
C           17.83785805006476       -0.36661022083071        2.80257912106238
N           17.64974895859484       -0.26450599708702        1.44687590659353
C           19.04517017076553       -0.17410266242761        3.46083846530176
C           20.24287829934440        0.03435601118842        2.78953239488591
C           21.50336014711073        0.20539415214662        3.44622587002035
C           22.44932793733511        0.22486562363866        2.47713013669538
N           20.41610603333086       -0.02589552670527        1.42536010001365
C           21.76837356440941        0.05777864354260        1.23302244462447
C           22.42864131615192       -0.08421747709880        0.01001770616399
C           21.74581738438882       -0.20447199829100       -1.20253617583907
C           22.39972177902963       -0.37392339250484       -2.46060684939437
C           21.43799887402389       -0.30856266838057       -3.41255616011776
C           20.19650360075472       -0.10040226927941       -2.73122385762065
C           18.98245598242787        0.09734427233189       -3.37803230702477
C           18.97826916049533        0.19449537207985       -4.85562006345372
C           18.25774667089440       -0.72139703528295       -5.62680195658605
C           18.26467749717138       -0.62971189354771       -7.00645476496062
C           18.98920222084956        0.38096263801901       -7.64117047520377
C           18.96696030672678        0.43673933832093       -9.12256929825897
O           19.70859034554669        1.43119352843989       -9.63356646231930
O           18.35119265405588       -0.32609697964007       -9.82272926559500
C           19.70832046092007        1.29953082530709       -6.87579087989654
C           19.70305652294837        1.20361738753726       -5.49536427992297
C           17.77737753023073        0.19255351871055       -2.69376029135305
C           16.50821123069426        0.40799686698184       -3.32568274045262
C           15.56659023813375        0.30376117209170       -2.35896362721410
C           16.26163211178939        0.04742954700637       -1.13443650510542
N           17.61798312353739        0.01936311146096       -1.34155970468151
N           20.39231463208651       -0.08515706153104       -1.36969107685074
C           19.06338094386609       -0.20731878454329        4.94339611234115
C           18.78339951667687       -1.39447444747317        5.62421982667588
C           18.81693362313516       -1.42958088810365        7.00622808697877
C           19.12765713209705       -0.27790630978383        7.73165309557277
C           19.15841921237759       -0.36756174464467        9.21130061736865
O           19.49961540970509        0.78245541120155        9.81195320368166
O           18.90794193596390       -1.36552649933380        9.83746576272624
C           19.40111019626777        0.91160306919147        7.05565521036177
C           19.37009551300258        0.94385537984843        5.67219246955416
H           14.54700461484200       -0.22604767203029        0.07713737976960
H           14.56408550809340       -0.71790994733113        2.62407338563398
H           16.46792605503065       -0.68975583438281        4.53512118091531
H           21.63951786552661        0.28313689810839        4.51239326110867
H           23.51607377923710        0.33532476731500        2.58257223740861
H           23.45925613314824       -0.52547431852517       -2.58602610739440
H           21.54864095824278       -0.40301289291163       -4.48038535661703
H           17.70748902267934       -1.51669019913854       -5.13702303750384
H           17.71253534746183       -1.34055120168613       -7.61139535905543
H           19.64253651803392        1.39758884943298      -10.60173940832429
H           20.26948073830845        2.08745074931898       -7.36410546090867
H           20.25304215372726        1.92378493397212       -4.90006326974432
H           16.36873873906776        0.61188874188033       -4.37483338853924
H           14.49554007981174        0.39309377959616       -2.44641730704319
H           18.55605607003857       -2.29264800155810        5.06137479834775
H           18.60761792061728       -2.34880111581709        7.54234283386820
H           19.49813435879596        0.63987848987637       10.77238184879082
H           19.63797381553069        1.80880724821927        7.61533779306478
H           19.57394446389976        1.86988848510548        5.14634640774769
Ni          29.87392750009204       -0.08398658647412       -0.05068553690539
C           33.26224465490647       -0.18431196071031       -0.09009948515095
C           32.59855027793233       -0.22590963904339       -1.29865111760830
C           33.26320279163787       -0.29813304394626       -2.56434017345666
C           32.30600815335386       -0.17616169315814       -3.51317894320073
C           31.05457354231166       -0.04095454071175       -2.82616077275669
N           31.24268647291211       -0.09590000452904       -1.46772701086972
C           29.84725845909944        0.22615063934568       -3.45782952899145
C           28.64954219622951        0.35577712211205       -2.76697074743061
C           27.38905341830742        0.60134964479305       -3.39956767496716
C           26.44308962120595        0.50894427357740       -2.43468763470405
N           28.47632050340130        0.13864100150756       -1.41884501378116
C           27.12405390916626        0.19956050724767       -1.21813747623069
C           26.46379305727677       -0.08248558280559       -0.01965609820607
C           27.14661396633215       -0.34172468926392        1.17095313262776
C           26.49270248183308       -0.65507376848510        2.40109946545926
C           27.45442314713748       -0.69991837327738        3.35423734600007
C           28.69592449034477       -0.41462166696119        2.70144712829855
C           29.90998449899216       -0.29281288556735        3.36672797717816
C           29.91417665924160       -0.36668999211976        4.84566215031474
C           30.63467642370650       -1.36541298449879        5.50609074122764
C           30.62774765151400       -1.43342170694095        6.88711323347669
C           29.90324539482358       -0.50265860850801        7.63413460712622
C           29.92551919518275       -0.61804241039760        9.11208596520885
O           29.18386686687297        0.31084057241354        9.73433862688174
O           30.54128692919939       -1.45652380477050        9.71961677187869
C           29.18413964178200        0.49804580925045        6.97977760305346
C           29.18940521109232        0.56194589924814        5.59749964331656
C           31.11506520754365       -0.11938532483365        2.69798997306920
C           32.38424145226508        0.02168013654982        3.35054090451167
C           33.32586181547510        0.02958769242883        2.37825123916591
C           32.63081277175419       -0.08376994853215        1.13233194380677
N           31.27446132210872       -0.13549090565579        1.33483895459898
N           28.50011782854861       -0.24251097713780        1.35074952035227
C           29.82904608445448        0.36411544329283       -4.93432926632346
C           30.10903263782049       -0.73661024188762       -5.74751076465573
C           30.07551379828125       -0.61211038993811       -7.12434923441226
C           29.76474418689958        0.61553013515596       -7.71212114212306
C           29.73389156629402        0.69708703886464       -9.19223033363982
O           29.39279378169442        1.90872619344769       -9.65625229693955
O           29.98458073214136       -0.22199370260647       -9.92934329137256
C           29.49128998865510        1.71915065443558       -6.90346144734335
C           29.52232558649493        1.59165336826439       -5.52551088748096
H           34.34543456450593       -0.21571995832802       -0.10270086892955
H           34.32834634983191       -0.41050626681701       -2.68937167726538
H           32.42449985728028       -0.16212052902385       -4.58441443707160
H           27.25289500663236        0.80148279370762       -4.44966470348119
H           25.37634033784779        0.63079557895083       -2.52669213167361
H           25.43316428382221       -0.82005083845232        2.50820655582829
H           27.34377585513980       -0.91684683262146        4.40405676071516
H           31.18491831944009       -2.09893797215020        4.92787563011616
H           31.17988327869122       -2.20927813358039        7.40605348836478
H           29.24993105083190        0.16583193113612       10.69217876591558
H           28.62299129103229        1.22441309008048        7.55568874449199
H           28.63943244598830        1.34596181063556        5.08921048226723
H           32.52371977743120        0.10320605289159        4.41620536254980
H           34.39691579846315        0.10818540800675        2.47542340487772
H           30.33636551177273       -1.69369917833305       -5.29199506640079
H           30.28480174457199       -1.46337962622137       -7.76288648314138
H           29.39439692201747        1.87788364732918      -10.62673827079286
H           29.25443901584242        2.67491297440202       -7.35594814642377
H           29.31848205263743        2.45087027389383       -4.89638376719898
C           23.83824654739260       -0.09235698594515       -0.00085070130398
C           25.05418762352932       -0.09185023494501       -0.00980309959858
