124
 energy: -212.978173064673 gnorm: 0.000738092073 xtb: 6.5.1 (b24c23e)
Ni          15.39247518951185        0.05314897578861       -0.03199704003447
C           12.00355105666919        0.13682724503140        0.05989920260740
C           12.66058027491540        1.15869994151680       -0.59398510818587
C           11.99199043755326        2.22969852330359       -1.26628781569876
C           12.95381850536363        3.08839502505154       -1.68042808336533
C           14.20879236103623        2.54662197312988       -1.24951704034875
N           14.02111374255666        1.34064128932148       -0.62181296685727
C           15.42806805525494        3.19682747494997       -1.40151585278633
C           15.44079553731269        4.56127397919856       -1.97698169634547
C           16.15149116325728        4.83745698438680       -3.14748148806946
C           16.16269410742299        6.11183098459269       -3.68632186907099
C           15.46201184178171        7.14487513165971       -3.05837915349494
N           15.51254407882151        8.43224998608503       -3.56496502168903
C           14.75824524787166        6.87919062625247       -1.88088985571799
C           14.74361860521059        5.59985110703087       -1.35463998694585
C           16.63309226113505        2.61630146076419       -1.02627556143787
C           17.89907473422278        3.27788488016876       -1.11663814477720
C           18.84201131871908        2.37022077876503       -0.76534016495928
N           16.79755279378042        1.32570000808655       -0.57497368679029
C           18.14987098814797        1.16225720202969       -0.44859851559236
C           18.80018557225078       -0.03128037449559       -0.12370185533599
C           18.10926781326629       -1.19272372784523        0.23206079233781
C           18.75645139446514       -2.43373668047304        0.51413287997675
C           17.79031977166003       -3.29187488229026        0.92251357753119
C           16.55618110122393       -2.56724382354266        0.90102551158482
N           16.75928321331056       -1.28810031167016        0.43309930600546
C           15.34764888338899       -3.08442752725715        1.35084615863787
C           15.32725848979477       -4.44107657601320        1.94419091779707
C           16.08893307789802       -4.73580918838205        3.07762070079144
C           16.06772408737146       -6.00102335225846        3.63696823274122
C           15.29154446871340       -7.00988647332563        3.06059764152136
N           15.23806097733593       -8.26593848956460        3.63931367195402
C           14.52366254630496       -6.72206372959823        1.92923277958548
C           14.54261419104123       -5.45135694906166        1.38242475597167
C           14.15522582916858       -2.37536736910526        1.26187819283424
C           12.90058504841585       -2.85209911328209        1.76501188875439
C           11.96076245574288       -1.94965849678079        1.39607773884305
C           12.64330035661832       -0.91592313636048        0.68083223289445
N           13.99289025284763       -1.16481099453031        0.63612093759041
H           10.92042332499818        0.16409320999791        0.08927861703988
H           10.92345254127923        2.29857595824793       -1.39545741658865
H           12.83659470516094        4.00626458298672       -2.23343286174903
H           16.68364047398999        4.03712859336864       -3.64994736471705
H           16.71244399744102        6.31256058283030       -4.59944230122726
H           15.73706928557600        8.49486912187221       -4.54523646413355
H           14.75223088807982        9.03000170700678       -3.28280418034380
H           14.22360047165963        7.68019032214054       -1.38214191406722
H           14.20264582156781        5.40306396045413       -0.43551017406870
H           18.03909514912122        4.30672982771443       -1.40546281238921
H           19.91201804216998        2.49388429998965       -0.71921005845531
H           19.81454751954904       -2.61077701853683        0.40679054044501
H           17.89371962209677       -4.32589823707992        1.20857110673936
H           16.68743119935152       -3.95597705266262        3.53571653797347
H           16.65389585894631       -6.21488470526366        4.52402788362018
H           16.02863112159636       -8.50281086515805        4.21727160970487
H           14.94824410121344       -9.00760405422385        3.02215109680683
H           13.91608247218075       -7.49989646716632        1.47963332250654
H           13.95756165713918       -5.24033797456156        0.49389751615350
H           12.76846115865642       -3.75964493296762        2.33141994509519
H           10.89885789452177       -1.96504840366701        1.58395134642658
Ni          28.81295957727182       -0.05622840526867        0.02583469267133
C           32.20204201919772       -0.02804385059550        0.14065274527751
C           31.54508973691133       -1.13682396113685        0.63315099473750
C           32.21387499064786       -2.28876901897743        1.15445033508045
C           31.25239373555786       -3.10726357064194        1.64397276152269
C           29.99742142604668       -2.44840024947556        1.43166103283293
N           30.18474080513408       -1.25959658599548        0.77186655844599
C           28.77834572104521       -2.93394153298114        1.89063802570894
C           28.76608398002745       -4.16693604396766        2.71077101363390
C           28.05454847832726       -5.29531811737491        2.29619653071467
C           28.04381320420940       -6.44780676011550        3.06180029485870
C           28.74600824069533       -6.49442821305760        4.26892459935167
N           28.69562022332920       -7.62720914816265        5.06296914735734
C           29.45063423179897       -5.36600741913997        4.69621582864990
C           29.46459471784441       -4.22125277148883        3.91959265892476
C           27.57319838120301       -2.30052016581898        1.61421960974105
C           26.30746595469586       -2.74116150262603        2.11645350732075
C           25.36428669837619       -1.94660482858676        1.55475305367997
N           27.40841163030069       -1.21117635044166        0.78796042832226
C           26.05600208150219       -1.01531251720968        0.72249757232320
C           25.40517017023189       -0.08517330921491       -0.09250257439739
C           26.09546773559618        0.85359998167975       -0.86393523205972
C           25.44770395636299        1.77494175376381       -1.74149023667912
C           26.41356035754270        2.58946113394762       -2.23165844924242
C           27.64812639706105        2.17063389180718       -1.64077370088597
N           27.44549345100825        1.07368720004978       -0.83341278483711
C           28.85672855100187        2.83097620583882       -1.82426856977169
C           28.87660221828539        4.07565018645950       -2.62635100513256
C           28.11528039399530        5.18288536455534       -2.24404426647984
C           28.13596442927074        6.34891888730501       -2.98834706191549
C           28.91129387634140        6.42708064419323       -4.14818413592853
N           28.96444117622544        7.60434302176440       -4.87401456570793
C           29.67866691915949        5.32536622058794       -4.53521227549179
C           29.66019538606669        4.16667868947990       -3.77942378701515
C           30.04951991589814        2.36411696954929       -1.28409672538246
C           31.30446447644303        3.04606421447860       -1.40526085519264
C           32.24472797051166        2.23875557497153       -0.85948800247465
C           31.56214439882467        1.07168882661943       -0.39242900256807
N           30.21218944234165        1.17310543706457       -0.62191450825398
H           33.28525586567746       -0.01952168515100        0.17733275538928
H           33.28229886788009       -2.43513702737569        1.13883787342618
H           31.36994838258955       -4.07484007342033        2.10444272689038
H           27.52112915328450       -5.27273145073471        1.35219941970859
H           27.49325268894497       -7.31987819077432        2.72616654186986
H           28.46984411506938       -8.47934165916579        4.57522703508138
H           29.45562728766805       -7.72264993375102        5.71754796413886
H           29.98630629048823       -5.39206787214222        5.63889224612210
H           30.00614127196232       -3.34625625844452        4.26206542083930
H           26.16760118514721       -3.55050081290661        2.81425705816788
H           24.29438729757941       -1.97614211515098        1.68427158616450
H           24.38940513308918        1.78375396790743       -1.94729748128256
H           26.30977719546733        3.39940287543209       -2.93519470224761
H           27.51751393643255        5.13286673302510       -1.34051365709157
H           27.55008481450120        7.20615704626351       -2.67514189615565
H           28.17367315718104        8.21651052157323       -4.75115213773260
H           29.25350499438476        7.50067051610506       -5.83354140759329
H           30.28550360615666        5.38128271914354       -5.43240064083618
H           30.24481672769447        3.30975196219323       -4.09596298489702
H           31.43641107914143        4.01990238438118       -1.84812744664285
H           33.30694703762456        2.40291214804730       -0.77049852375601
C           21.42716875573366       -0.07537965260926       -0.14967180072432
C           20.20592026617086       -0.05922670419385       -0.14532775097674
C           22.77818983058114       -0.08417546797333       -0.14249567083548
C           23.99944186573390       -0.08778368904183       -0.12823736598138
