226
 energy: -408.855914952784 gnorm: 0.000453858017 xtb: 6.5.1 (b24c23e)
Cu          37.06276715245566       -0.02045961283750       -0.01753600415380
C           33.65686366290001       -0.05536462476715       -0.04286879529816
C           34.29262377452099       -1.28104413342113        0.08480068164987
C           33.61799868392526       -2.53897603998927        0.23309263176308
C           34.57703847525568       -3.48995113295661        0.35269715388168
C           35.84753899652772       -2.82164338087337        0.27079741615802
N           35.64355711707368       -1.48105804468157        0.11238001963427
C           37.09193915141977       -3.44632153237454        0.37798763365176
C           37.10494300137186       -4.92040649094314        0.54306144421108
C           37.61532863621678       -5.51712375689018        1.69515437719081
C           37.60454033256002       -6.89893999769679        1.80201646833456
N           37.13151503989291       -7.69563428956945        0.84899530728316
C           36.64526522196316       -7.13489156916088       -0.25356181835791
C           36.60792314758852       -5.76338268167700       -0.45009643434030
C           38.32484748180440       -2.79268888506670        0.33901813992644
C           39.60262267133548       -3.44331210713272        0.40987218260430
C           40.54827650635728       -2.47559431233291        0.30704122188749
N           38.51257515020591       -1.44451111565203        0.18640216693852
C           39.85651294000542       -1.22955818269242        0.16460503780282
C           40.49141530452634        0.01259867763576       -0.00422678602560
C           39.83324848371707        1.24264129765120       -0.17190927710228
C           40.50094566372812        2.49467971020303       -0.36601518636296
C           39.53736226914850        3.44415400187473       -0.47340640939096
C           38.27278377650320        2.77790381194696       -0.33905642505885
N           38.48565682040240        1.43575381304194       -0.16837626226363
C           37.02775613105914        3.40717474295933       -0.39897954333138
C           37.01536825917820        4.88234995975719       -0.54992044217453
C           36.44849008301442        5.49413910243696       -1.66724998132263
C           36.46416179773661        6.87689621771827       -1.76156640296120
N           36.99406850598735        7.66092361971142       -0.82828496012969
C           37.53459419254111        7.08596323670459        0.24129670249274
C           37.57120887536140        5.71254062323534        0.42295639804562
C           35.79454609647681        2.75561461675248       -0.32580206987395
C           34.51191481123791        3.40513249583923       -0.34972126488825
C           33.57109335937438        2.43330406506195       -0.25549507904879
C           34.26926140959268        1.18301115657909       -0.16218876542137
N           35.61600777249907        1.40790164695496       -0.20012556115256
H           32.57179259027642       -0.06522624598340       -0.03852723095499
H           32.54663580400108       -2.66293761944690        0.24889759567591
H           34.44386867262122       -4.55012070782336        0.49632509912765
H           38.00164826365946       -4.90675420509248        2.50273945138401
H           37.99267753648597       -7.38660564411215        2.69150997009123
H           36.26900551986639       -7.81174363912770       -1.01511530532196
H           36.21232213221494       -5.35108495325353       -1.37072636469227
H           39.75291639536602       -4.50581715570126        0.51190447753509
H           41.62076506178177       -2.58641138692150        0.31805614784202
H           41.57066702853299        2.62021235026238       -0.41694955027794
H           39.66688680473769        4.50090333235111       -0.64204715161207
H           36.01589119860279        4.89483974600582       -2.45953653816427
H           36.03272640464485        7.37581348079844       -2.62447192009366
H           37.95759167984445        7.75260312582863        0.98716336702620
H           38.01251169078868        5.28845769826346        1.31708251738860
H           34.35844431883667        4.47003535277624       -0.41843213284659
H           32.49781199220073        2.53967884405862       -0.24187081791903
Cu          77.48335279192889        0.04003254835111       -0.01854123686325
C           80.88920548603393        0.05612750835017       -0.06577363589361
C           80.25617183943542        1.26704651921611       -0.30189795035546
C           80.93362478201912        2.51150898496059       -0.52963817292019
C           79.97670549745318        3.45670565977120       -0.70104157247463
C           78.70478416094744        2.79566213427621       -0.58868529685150
N           78.90570852120808        1.46855758886517       -0.33874715871809
C           77.46132772949825        3.42301263507322       -0.69048863099025
C           77.44974568164368        4.87927478763088       -0.97215963681985
C           76.92240183809406        5.78878173186246       -0.05622774789102
C           76.93461153610846        7.14039977845721       -0.36237978325744
N           77.42429079454224        7.62081716638405       -1.50090173637209
C           77.92631472829841        6.76032240746904       -2.38064878796724
C           77.96399632760242        5.39206480374845       -2.16226790335320
C           76.22688206270976        2.78677569017167       -0.54838056587727
C           74.95075915728101        3.42577974878994       -0.70345543353247
C           74.00299427179229        2.47430075607458       -0.50872706825298
N           76.03637007931616        1.45842081322325       -0.27414823610023
C           74.69207818500668        1.24790402402350       -0.23982431699318
C           74.05467383934334        0.02172395228114        0.01530961741042
C           74.71044563370063       -1.19599847535372        0.26414037989872
C           74.03935651941606       -2.44097202043289        0.48917606597883
C           75.00086503495002       -3.38182068130629        0.66749741743345
C           76.26769271666110       -2.71494498489531        0.56059375317502
N           76.05777223065164       -1.38522954885081        0.30739580467810
C           77.51155567455888       -3.34031602619951        0.66642255838381
C           77.52218839220923       -4.79394010542517        0.96000946031308
C           78.06159401484939       -5.71105618882640        0.05880166772600
C           78.04412948604654       -7.06030450585378        0.37539162641491
N           77.53769669607874       -7.53167554016847        1.51024427549279
C           77.02422020473713       -6.66396520433255        2.37631583657679
C           76.99164480627321       -5.29747467012140        2.14717928688597
C           78.74575717225976       -2.70412416228388        0.51560177960163
C           80.02747120628739       -3.33774660901739        0.66818217125921
C           80.97018016294162       -2.38578656647370        0.45951970882807
C           80.27422417115967       -1.16076854021327        0.18682693151846
N           78.92691076744431       -1.38115399239265        0.23118516742731
H           81.97430082197353        0.06357112879139       -0.06869104916926
H           82.00525443970412        2.63297608734488       -0.54678116923201
H           80.11222311129329        4.51162624966794       -0.87737827294753
H           76.52169045687290        5.44331674540866        0.88935256659069
H           76.53352769422899        7.86819930426962        0.33698103987122
H           78.31599644025249        7.18273185787450       -3.30230433332674
H           78.37297841068856        4.72709226897807       -2.91365842151243
H           74.80326011619209        4.46629926204385       -0.94323023195351
H           72.93083299213333        2.58247504312909       -0.54623838227595
H           72.96889248667665       -2.56996133158965        0.49981264386152
H           74.86793623515727       -4.43715900015280        0.84208244254886
H           78.47422692890677       -5.37387059438439       -0.88465664907382
H           78.45405650991424       -7.79375058167069       -0.31288508802327
H           76.61997443810890       -7.07909485335158        3.29495273002234
H           76.57281335542181       -4.62643791470408        2.88765984417046
H           80.17902718782521       -4.37594464839762        0.91614550367599
H           82.04346494342668       -2.48810747994314        0.49153399240665
C           43.12055139457336        0.02921788705175       -0.02328721483665
C           41.89918208867974        0.02287802741560       -0.01651582083722
C           44.47154317198706        0.03229759029146       -0.03130673802223
C           45.69302169091360        0.02888540616372       -0.03836184302480
C           56.59918137593242        0.01910143108142       -0.02670783678804
C           55.37705901214000        0.01912491659347       -0.03001955727200
C           57.94875414156522        0.01582078932062       -0.02501025669648
C           59.17086571806116        0.01009167858428       -0.02393507495507
C           70.07527925072431        0.00003325169678       -0.00064551757979
C           68.85368512150690        0.00094609165776       -0.00634047704370
C           71.42586922340901        0.00415586748568        0.00681038054680
C           72.64731332369240        0.01152696408610        0.01151927551547
Cu          50.53528514161089        0.01872543798760       -0.04089238671484
C           47.10027899177219        0.02441499985280       -0.04210169284252
C           47.74600319245648       -0.87642054616927        0.82259838622211
C           47.06585939903090       -1.75114819898643        1.72997035703282
C           48.02036225293325       -2.45141425656550        2.39381815294087
C           49.29054043565897       -2.01369550040520        1.88871073080596
N           49.09071043979434       -1.05059965765310        0.93609274288188
C           50.53047578360653       -2.48276378735868        2.32704939178624
C           50.52884409098290       -3.55606276748259        3.35065942935600
C           49.97361421881734       -4.80781942305918        3.08834731870649
C           49.99867223777176       -5.77869889728013        4.07717320529596
N           50.52619818887263       -5.57433591560935        5.27991030817787
C           51.05519833384237       -4.38285178225163        5.53905305679296
C           51.08282926731992       -3.35138927614965        4.61376353290859
C           51.77217105345790       -2.02350111546839        1.88368228618333
C           53.04020613811193       -2.55530904075471        2.29494002319455
C           53.99766995683001       -1.85618095830385        1.63394099231225
N           51.97631448523571       -1.01985833744647        0.97454344781534
C           53.32135767616328       -0.89966968825636        0.81038174161222
C           53.97143454170212        0.01940118843593       -0.03269252137897
C           53.32460068895507        0.93709435882426       -0.87969495825121
C           54.00412114802232        1.89256858827392       -1.70175564393253
C           53.04945465399484        2.58758175252249       -2.37105341142248
C           51.77981255624471        2.05495731837357       -1.96570463591781
N           51.98023531038424        1.05511434514745       -1.05163845442160
C           50.54014301204668        2.51076582590240       -2.41870101806779
C           50.54531238418645        3.57403737071161       -3.45258349105295
C           51.11266312071179        3.35669039785121       -4.70775257880792
C           51.09397144563763        4.37805705988573       -5.64424293716180
N           50.56095476310403        5.57162245572889       -5.40342960977929
C           50.02033321905054        5.78799164444501       -4.20867507347325
C           49.98593336765767        4.82781224275038       -3.20965535258113
C           49.29811106126468        2.04621413321958       -1.98138730282612
C           48.02962485783280        2.48407105424297       -2.49070151644841
C           47.07239307783522        1.79202683503269       -1.82214480731165
C           47.74916565500724        0.92029084825992       -0.90940051321308
N           49.09452959890435        1.08950040352135       -1.02304222631263
H           45.99518753539223       -1.80864977483451        1.84397713789600
H           47.88071206718116       -3.18948608559627        3.16691393954916
H           49.54231367901252       -5.02299385652221        2.11794029662340
H           49.57684474047837       -6.76279490270352        3.89486926383755
H           51.47601961747345       -4.24565079110915        6.53088488575390
H           51.51528925166009       -2.39230052413286        4.87289875158412
H           53.17638052894939       -3.36870561155556        2.98904099082438
H           55.06797809908449       -1.97571728371806        1.68693116538443
H           55.07450344523059        2.01402166246599       -1.74847119180588
H           53.18852587183433        3.39931620928100       -3.06650985477476
H           51.54903004251577        2.39541072849914       -4.95185406164466
H           51.52603395911586        4.23091861595335       -6.62981745448770
H           49.59528570106820        6.77338393089798       -4.04157665426461
H           49.54463770683257        5.05341575552045       -2.24614291586548
H           47.89264335203379        3.21690416030754       -3.26924116836606
H           46.00194360031013        1.85206445065119       -1.93708554048606
Cu          64.01188334647208       -0.00233063989054       -0.02352680454114
C           60.57644350522406        0.00565274522836       -0.02423487836559
C           61.22283002821430       -0.87562764926453        0.86100002089222
C           60.54352900896824       -1.72989616931666        1.78793316815244
C           61.49781862557558       -2.43237303822365        2.45005855130473
C           62.76680359752962       -2.01618035203223        1.92444313790548
N           62.56666807239560       -1.06012779700040        0.96447139897933
C           64.00603571603298       -2.50342807092134        2.34454741701646
C           64.00297556003075       -3.57704054164704        3.36757338766215
C           63.41623833976111       -4.81663281832437        3.11583786711090
C           63.43805999162053       -5.78786017333198        4.10430957229788
N           63.99161557490255       -5.59504316221517        5.29723964785249
C           64.55151579187002       -4.41554070874294        5.54604929360099
C           64.58483218764310       -3.38486164799033        4.62008552035601
C           65.24754194950381       -2.06137794257323        1.88300493165778
C           66.51429272612496       -2.61142658398148        2.27376007963082
C           67.47199318078920       -1.91314849578215        1.61217837102838
N           65.45210336043785       -1.05113168170449        0.98161919895154
C           66.79696351828225       -0.93920212832762        0.80809324593438
C           67.44699211481139       -0.00173352265213       -0.01362809419114
C           66.80131441063031        0.93316102781529       -0.84162890744337
C           67.48047252937265        1.90513503519886       -1.64463119851066
C           66.52638453217914        2.59958818243679       -2.31539069872433
C           65.25764959901515        2.05007186710720       -1.93030110098162
N           65.45740929820792        1.04307435005282       -1.02431880193600
C           64.01858362409602        2.49190331830052       -2.39882570080072
C           64.02209048966658        3.56030317639581       -3.42726064209816
C           64.60991596177286        3.36026247513713       -4.67577960638369
C           64.58450661662113        4.38641873445542       -5.60699172951518
N           64.02663879889323        5.56872761390673       -5.36696675531301
C           63.46704230614758        5.76887612095603       -4.17810907732623
C           63.43725087928738        4.80264443732893       -3.18490758334638
C           62.77695631692877        2.01056980675077       -1.97912159256377
C           61.51009830736398        2.43045629738482       -2.50695625316799
C           60.55226044372926        1.73619594183491       -1.84133441663347
C           61.22726123499815        0.88203922578396       -0.91113204949569
N           62.57197944603022        1.05945902628512       -1.01521690984809
H           59.47360864840729       -1.77425056771216        1.91427622921207
H           61.35892312330782       -3.15860098348204        3.23441686116628
H           62.96270017425393       -5.02224457412293        2.15353181942401
H           62.99125718661779       -6.76235959215208        3.93016628921632
H           64.99312823660564       -4.28764156260659        6.53005606883379
H           65.04264139544964       -2.43543950538343        4.87114612119554
H           66.64945760182515       -3.43458930537663        2.95647557694376
H           68.54159277632243       -2.04328294399096        1.65336405870739
H           68.55018644857401        2.03622876934538       -1.67938204835931
H           66.66506163518625        3.42033523812642       -3.00030918945787
H           65.06645508941016        2.40833422565024       -4.91958490991667
H           65.03113506576324        4.25244757892817       -6.58790858605080
H           63.02208998789621        6.74547523479821       -4.01111083799579
H           62.97929865655701        5.01451083452705       -2.22606624185229
H           61.37472873956888        3.15358727161372       -3.29478070872475
H           59.48257016569323        1.78559568856389       -1.96772332439170
