300
 energy: -520.659088497189 gnorm: 0.000594672970 xtb: 6.5.1 (b24c23e)
C           63.00655791895595       -0.04264917707484       -0.13620970380486
C           63.60126548266815        1.16788106218372       -0.46748737758768
C           62.93729510771812        2.36500096826936       -0.85614422629490
C           63.88902752083423        3.31708301455976       -1.09107400076118
C           65.16500828678106        2.73583363744449       -0.84118969083091
N           64.94062410239506        1.43803051087413       -0.47792173939378
C           66.42014877205959        3.34413745151631       -0.95471400582613
C           66.43362809236133        4.77427596417184       -1.34931552202178
C           67.06956151999096        5.17723789000761       -2.52423320210345
C           67.07960275765041        6.51040056810747       -2.90345444739680
C           66.45434095474820        7.46194337162936       -2.10093502355357
O           66.44184775266457        8.77862626631884       -2.43295233254817
C           65.81842902395481        7.07362338438985       -0.92323153445436
C           65.80760628731248        5.73932358294508       -0.55670366610286
C           67.64343582423629        2.70780038475335       -0.72798929247826
C           68.92753096375084        3.38197538656557       -0.79091534298558
C           69.86315872256642        2.44806313535618       -0.52193644255804
N           67.82027994561048        1.39684564672256       -0.40587957939151
C           69.15086692399605        1.20805919764030       -0.28411562609751
C           69.80713542878992       -0.00536136723248        0.00266333769989
C           69.18762966418188       -1.24307470358908        0.25827381691778
C           69.84478526401644       -2.47247596670532        0.52766881965262
C           68.88827533748534       -3.42533758086530        0.74495730871377
C           67.61482023438012       -2.80302482723232        0.62834662983859
N           67.84774145858560       -1.48778117234166        0.32321604152460
C           66.36030836303425       -3.40492059209880        0.77710651649240
C           66.34694857544402       -4.84318298343762        1.13868889267386
C           66.92911915239986       -5.28470498199957        2.32957394578190
C           66.91357538027911       -6.62517385008246        2.67202729202728
C           66.31748785569894       -7.55033617798831        1.81696683928683
O           66.32375911860454       -8.85836208039756        2.18168894299420
C           65.73629042352502       -7.12566658062129        0.62440923054554
C           65.75002541284741       -5.77960030886164        0.29369006368321
C           65.13439252040992       -2.75160763427554        0.61293141745765
C           63.83927701481628       -3.37699859687277        0.83160735569146
C           62.91061767051148       -2.43412856337658        0.57346453350596
C           63.63714613767251       -1.23105517355430        0.20849529054470
N           64.97314865379096       -1.45643004829093        0.25180392284629
H           61.92137870225455       -0.05248631039187       -0.15332000919146
H           61.86784654349144        2.46865381242243       -0.94816262813359
H           63.72730238268568        4.33169316556767       -1.41723027216361
H           65.67205482283583        0.77153078830947       -0.25443308841831
H           67.54562586647249        4.43570162217568       -3.15604917800375
H           67.56974899988157        6.81641236214380       -3.82148082207205
H           66.91721043376486        8.93872728326137       -3.25923339730836
H           65.34057318109537        7.82468379724054       -0.30640703199985
H           65.32516310999698        5.44061094823355        0.36734165124607
H           69.07207889476395        4.42977297466236       -0.99882306967994
H           70.93395788831162        2.56475874005025       -0.48197170876599
H           70.91433917423690       -2.60438409345034        0.54966137671522
H           69.04844654261564       -4.46927003218389        0.95976417791214
H           67.11849578479961       -0.79970216861193        0.16706647815787
H           67.37992353043590       -4.56396489906765        3.00271252134859
H           67.35682488801029       -6.96876032965508        3.59851303876347
H           65.88131627376119       -9.41014399360820        1.52281533755301
H           65.27710469116096       -7.84956845439360       -0.04028014421327
H           65.30843592736385       -5.45203394493517       -0.64089347944231
H           63.68620052243106       -4.39459885664198        1.15341379020267
H           61.83584682794114       -2.51217235007917        0.62544728510105
C          113.41697501699738        0.07857858388905        0.21436376538188
C          112.82413217962858       -1.12480127804282        0.57401053048461
C          113.49221010681407       -2.32862399641770        0.93386608527640
C          112.54208298150476       -3.26678569834356        1.22477174064867
C          111.26243956149025       -2.66309230408715        1.06249492861658
N          111.48386400419993       -1.37663620737857        0.65903108809565
C          110.00721997253153       -3.25055482014187        1.25756081405671
C          109.99623276847663       -4.65515739848261        1.73399760213343
C          109.39565950933313       -5.65717402959491        0.97088621131857
C          109.38998975214736       -6.97295067173214        1.40695745716943
C          109.98354851745455       -7.30047295174040        2.62380841470370
O          109.99933540953552       -8.57595197464989        3.08972465619640
C          110.58313686553441       -6.30884213106486        3.39806231170860
C          110.59015996673864       -4.99950031304401        2.95087754672107
C          108.78256096825795       -2.61348091264964        1.04007808747074
C          107.49413572930008       -3.21940960941852        1.32333365728253
C          106.55972285651620       -2.30653057721679        0.98578036715257
N          108.60904650350739       -1.35111809873331        0.56075503847104
C          107.27729890668539       -1.14201633876137        0.50520104320337
C          106.62506694308124        0.02534215063708        0.06192284531153
C          107.24526272603464        1.21829362696039       -0.35384833408317
C          106.58954018143596        2.37570746983962       -0.85038388731843
C          107.54449035816025        3.30821967228523       -1.14829681606955
C          108.81479055978923        2.75064005036002       -0.83529632884669
N          108.58244017893284        1.48426398757649       -0.36679597740769
C          110.06840004906010        3.35245074290037       -0.99302155996304
C          110.08264647419200        4.74798863974061       -1.49329454813777
C          109.44160832283831        5.76767286803756       -0.78504579402858
C          109.45521832736490        7.07080893580826       -1.24980610211836
C          110.10910488886769        7.37259065857857       -2.44302477396298
O          110.09916311733535        8.66073481077367       -2.87253318750078
C          110.74968796384677        6.36613814744965       -3.16210177377317
C          110.73684998431411        5.06495814618247       -2.68463059104789
C          111.29228885292767        2.73218996655842       -0.71986123102627
C          112.58490909335030        3.39074722066365       -0.82712902910447
C          113.51189993515236        2.47106036230197       -0.49090649722044
C          112.78644582588937        1.25527273238544       -0.16850445465688
N          111.45244774863050        1.45240444257469       -0.30712115602047
H          114.50203366099731        0.09169966661952        0.23757006505703
H          114.56350258810581       -2.45000940722685        0.95663835872251
H          112.70769432832030       -4.29101269848785        1.51718950512809
H          110.74978050848040       -0.70876172844742        0.44866876710037
H          108.94472787794163       -5.40574454853109        0.01739212918372
H          108.92800906889035       -7.74858831565043        0.80558653163225
H          109.55144105635536       -9.17873968412405        2.48114332837351
H          111.03608282961193       -6.57687506426418        4.34458990916810
H          111.04395071639077       -4.22652257840495        3.56114859087903
H          107.34596164891934       -4.20168307730002        1.74198381095295
H          105.48718876595994       -2.38490177298673        1.06207122697927
H          105.52289241119506        2.47082411569385       -0.97392452943707
H          107.38573490195260        4.29102148658429       -1.56119561476182
H          109.31173176316564        0.83665141178204       -0.08688626941688
H          108.94546209466084        5.53699751078342        0.15113572200625
H          108.96573084137556        7.86413954864154       -0.69852255538767
H          110.58326076819607        8.75889398030491       -3.70341490788056
H          111.25362421957364        6.60448607652530       -4.09265655721526
H          111.22397451705835        4.28021032056606       -3.25262425013676
H          112.73702518464059        4.42088442981544       -1.10674214249951
H          114.58459958636148        2.57754512615205       -0.44724138207835
C           71.21714481449001        0.00348132208126        0.03715252524641
C           72.43382428316522        0.01097684820635        0.07090310762044
C           82.14591621280368        0.07985447663217        0.09710612509588
C           83.36400602703569        0.08299903383280        0.07625525755246
C           93.08037369751344       -0.04880724076973       -0.12900919776890
C           94.29828072557439       -0.04588099993061       -0.13726344742996
C          103.99906293861618        0.00527195705877       -0.01489460316328
C          105.21538068381476        0.01377787180398        0.02428020984787
C           73.84295150253867        0.01159402655410        0.10737072219218
C           74.48089911032366       -1.18895725649319       -0.25785693270147
C           73.85013585251542       -2.37977570682332       -0.70004164841712
C           74.82701441529983       -3.29907166370052       -0.97047838687800
C           76.08451971370589       -2.69622265018092       -0.69653587849483
N           75.82486848711785       -1.41946524534290       -0.27556851828868
C           77.35011441258108       -3.27780164528258       -0.84655662456188
C           77.37313606662291       -4.70031109307792       -1.26881787687911
C           77.99073250778282       -5.07455809944473       -2.46278064663332
C           78.00951282949002       -6.40077246141263       -2.86562049907402
C           77.41264656662267       -7.37407305460718       -2.06763633157272
O           77.41011684395042       -8.68473342624408       -2.42243223748658
C           76.79580550428243       -7.01451641594830       -0.87064229239264
C           76.77505976619490       -5.68712956563534       -0.48101381981167
C           78.57207464784160       -2.63605828824209       -0.63785930175966
C           79.85678989343529       -3.30585229851148       -0.72716383899594
C           80.79431007706431       -2.37066233862537       -0.46853719056536
N           78.75116785039563       -1.32571200665248       -0.31118608257490
C           80.08287864918340       -1.13419225680158       -0.21541607326016
C           80.73752841610077        0.07270914406816        0.10708651915548
C           80.09775846755562        1.27648847049747        0.46036911320509
C           80.72865707798451        2.48963555710290        0.83692813902858
C           79.75184727366702        3.39608805794457        1.14553309663260
C           78.49223653928136        2.76751621626286        0.94881697910414
N           78.75249440337231        1.48784366354306        0.53519301451921
C           77.22768959352072        3.32767381942332        1.16671107521560
C           77.20232391411001        4.73519014733384        1.63950833070654
C           77.71895385853183        5.76543548472528        0.85066216335757
C           77.69304380755776        7.07674574889358        1.29221886592690
C           77.15226116205930        7.37513186613199        2.54144176752165
O           77.14685200477285        8.67147568896595        2.94607949172382
C           76.63602959096393        6.35747171017089        3.34032819630236
C           76.65996303733831        5.04805761783205        2.88640352627601
C           76.00475508555111        2.68026023723694        0.98110771133303
C           74.71738197453666        3.32759824145753        1.16076132186854
C           73.78008892295196        2.40431031958784        0.86302954012740
C           74.49419224837897        1.19872545325449        0.49410991865546
N           75.82735931288846        1.39349557956093        0.57435377759677
H           72.78529240250195       -2.50681467725349       -0.80839808539370
H           74.68973279513907       -4.30129308123953       -1.34226055351795
H           76.53431780013010       -0.73841404056010       -0.02639388421858
H           78.44507261178703       -4.31628893189506       -3.09073424895894
H           78.48463934699714       -6.68434519795981       -3.79863494921708
H           77.86733329030430       -8.82324815457729       -3.26274116663514
H           76.34028484475101       -7.78242900949844       -0.25769460079019
H           76.30669132694040       -5.41005412179624        0.45690121177320
H           80.00079336605565       -4.35331431041224       -0.93709469073367
H           81.86478995427309       -2.48917515462074       -0.42566075232987
H           81.79460837273274        2.64219147078375        0.87174813908264
H           79.89085805389573        4.40850162255153        1.48773659539665
H           78.04264066783374        0.79404761342722        0.32520377907155
H           78.12718988296233        5.53614884753801       -0.12734743910850
H           78.08606750405062        7.87866321891310        0.67958068183135
H           76.74194503307163        8.76584397414825        3.81874071613418
H           76.21888852459436        6.59378415490075        4.31336738473442
H           76.26784347567771        4.25492617556231        3.51320594434585
H           74.57109145239885        4.35322498392824        1.45840615577244
H           72.70726187441322        2.50659342315411        0.88453949045032
C           84.77206328226811        0.06196260088270        0.05370960850977
C           85.37300022108327       -0.95017577251529       -0.72055382368757
C           84.70297922997102       -1.90316434319484       -1.52919612280700
C           85.64960160797341       -2.68858447750639       -2.12834168261991
C           86.92782685308076       -2.23962735852440       -1.69914398508462
N           86.70999020968023       -1.18293115581398       -0.85539334869755
C           88.17245399034880       -2.75181854387961       -2.08749154439225
C           88.14189747742337       -3.93503537002373       -2.98348026329268
C           88.69872985027105       -3.87214058650359       -4.26122626736014
C           88.66540913007887       -4.97262467499806       -5.10348355404820
C           88.07640658160790       -6.15791563243489       -4.66937655585865
O           88.02367070344376       -7.26005445018734       -5.46108318672007
C           87.51980811547327       -6.23544370002240       -3.39406239543425
C           87.55098614076537       -5.12928312762051       -2.56346375981093
C           89.41777057344711       -2.24505432149029       -1.71211128253896
C           90.68174218164305       -2.84287285769428       -2.10290710362159
C           91.65085358161545       -2.07856101384272       -1.55784239332343
N           89.64070483584099       -1.15194566128359       -0.93114380763311
C           90.97963686870347       -1.02473733698238       -0.82499064830492
C           91.67212324433251       -0.02590044086969       -0.11183152610475
C           91.07220561515737        1.00207374882790        0.64120455545073
C           91.74393832646605        1.97355738848113        1.42655731106738
C           90.79765252688301        2.75659700442608        2.02906125410646
C           89.51817697447815        2.28834301763745        1.62441483506295
N           89.73503015509411        1.22555144091034        0.78834591022920
C           88.27380331278665        2.78394591542787        2.03339753580591
C           88.30379454883537        3.96269569576974        2.93587175749220
C           88.85963996797051        5.17102664382673        2.50913858027337
C           88.88882110659814        6.27256901147058        3.34613822442892
C           88.36571417343274        6.17581473860136        4.63417423994693
O           88.41441255132976        7.27426856860217        5.43122534929796
C           87.81286390942974        4.97572603764188        5.07527770546116
C           87.78112012251988        3.88002925935748        4.22681702392197
C           87.02888645553291        2.26471500100967        1.67459445286037
C           85.76519864540825        2.84329750364153        2.09366884577941
C           84.79587825738096        2.08004759674047        1.54778880636452
C           85.46603535282742        1.04615012691137        0.78628823973881
N           86.80511245734685        1.18166383789218        0.87968171122473
H           83.63388446044745       -1.96502637824045       -1.64809795645891
H           85.47843199720614       -3.49732944660226       -2.81978134366505
H           87.44200734944162       -0.64325479764126       -0.40580312507444
H           89.14605308116363       -2.94625328420512       -4.60513619891391
H           89.09341011298046       -4.91543370340582       -6.09857540824829
H           88.44222061604084       -7.09867370161051       -6.31730387590088
H           87.06925247601811       -7.16465126977638       -3.06778202318968
H           87.12868822696286       -5.19407486295608       -1.56684328844239
H           90.79271650121113       -3.73355318472046       -2.69985775444766
H           92.71975663895110       -2.19861705337403       -1.62925635589669
H           92.81410550975879        2.04860553344216        1.52802170124281
H           90.96978140095578        3.57627214463205        2.70725434199679
H           89.00251767066149        0.67322431562481        0.35519523394178
H           89.25595747505092        5.25053688331553        1.50295538086333
H           89.31204079918378        7.21277565770844        3.01481557989974
H           88.02263594071070        7.09881762973594        6.29725394504108
H           87.41152139417001        4.90358082703404        6.08045200021053
H           87.36166477591645        2.94284377382047        4.57524467123459
H           85.65426991056346        3.72145963466464        2.70885061884754
H           83.72729472773361        2.18887899918585        1.63665383680474
C           95.70693662729808       -0.04146541837450       -0.13187168602457
C           96.34485294941283       -1.27321158285230       -0.37310699870196
C           95.71105472903058       -2.51077794852961       -0.65329258484044
C           96.68622559522746       -3.44880405351004       -0.85445094013015
C           97.94683473312553       -2.81421079578243       -0.68539673437448
N           97.68940928291323       -1.49959855072042       -0.39964603871689
C           99.21154129091245       -3.40248061053110       -0.80910014862739
C           99.23668362638222       -4.85143048337377       -1.13068995327421
C           99.82431613871388       -5.29956062495934       -2.31421634356579
C           99.84536796665202       -6.64952089601327       -2.62801949183850
C           99.28050840004482       -7.57181277386988       -1.75020236393194
O           99.28067676995613       -8.90332735263180       -2.01748663718191
C           98.69511813468914       -7.13812356967502       -0.56218438671921
C           98.67263026938264       -5.78772787379207       -0.26101149320898
C          100.43402451937942       -2.74528212335722       -0.65712643077238
C          101.72109363218594       -3.41469177080657       -0.72001160978023
C          102.65655118838689       -2.46624591201147       -0.50698603015846
N          100.60906781092964       -1.42055180593784       -0.39854622293461
C          101.94082702638565       -1.22210943087492       -0.30763506774903
C          102.59049204886010        0.00283100070232       -0.06281238711081
C          101.95470460403646        1.24111404398643        0.14577914482642
C          102.58888094662822        2.47566155354118        0.43854642677229
C          101.61409006315053        3.42214893727901        0.60076167628485
C          100.35470361158799        2.79255412170113        0.40668857695964
N          100.61130642038043        1.47474216912860        0.13803317677197
C           99.08986865487179        3.38687063060056        0.50235010234188
C           99.06932727130300        4.84681095327806        0.76823076819070
C           99.65463024403462        5.74154699237072       -0.13108114383779
C           99.63800114227635        7.10355276589363        0.11171109613662
C           99.03811013546262        7.59165775469396        1.27115262369358
O           99.04404844981839        8.93305972150940        1.48078323700335
C           98.45416200489427        6.71124379742388        2.17911551103613
C           98.46876309933734        5.34898450314737        1.92321705391691
C           97.86760578408078        2.72533883776932        0.37176689534626
C           96.58133659924125        3.39718338882072        0.40826036694216
C           95.64514074270508        2.44025961533713        0.24017545980374
C           96.35920345539436        1.18796350974648        0.09362667814010
N           97.69073981155033        1.39012727062496        0.16826745209632
H           94.64459750616638       -2.65792644645027       -0.69934301313799
H           96.54509263601157       -4.48709464439719       -1.10628096542937
H           98.40152692551686       -0.79518481594822       -0.23843245573884
H          100.25386424300468       -4.58119808873394       -3.00353339355404
H          100.29744168728212       -6.99120579886356       -3.55298902361531
H           99.71351026061880       -9.09292994164903       -2.86070661223660
H           98.26471698664507       -7.86679563706481        0.11355663381483
H           98.22947411804633       -5.45258137777352        0.67011619855037
H          101.86771906481218       -4.46938990064898       -0.88760897952404
H          103.72887773499698       -2.57450989080064       -0.48148913343967
H          103.65447716331651        2.61310950534968        0.52562640747585
H          101.75400694658869        4.46154248217696        0.84889078908830
H           99.89945709689167        0.77077654060776       -0.02612888842151
H          100.10996928921011        5.36362876522413       -1.03973920181739
H          100.08408764358911        7.79957168671919       -0.58787714616456
H           98.59898079613779        9.16282644490272        2.30752040326446
H           97.99247825172783        7.09519033302303        3.08248595637762
H           98.02490588990635        4.66382695024465        2.63683041751089
H           96.43536886451362        4.45875713132309        0.52546608713400
H           94.57382647729823        2.55139221629565        0.19505474460425
