286
 energy: -479.155255668540 gnorm: 0.000735903908 xtb: 6.5.1 (b24c23e)
Fe          46.44780704503003        0.04988911432595       -0.04866731580057
C           43.06843099572826        0.14271453439886       -0.13314981381877
C           43.71055920006923        0.89071949000426        0.83303887860957
C           43.03217894012447        1.66877173281332        1.82446336612047
C           43.98606036266044        2.35368310770586        2.50000161822847
C           45.24510221010852        2.00729774437982        1.90665164990319
N           45.06625374964099        1.06952471655994        0.92632920415172
C           46.45819238511232        2.60869459845104        2.23420763406304
C           46.46618327623469        3.71295785544501        3.21646652739094
C           45.69418184049139        4.86105086782463        3.01289069814429
C           45.71505287423268        5.89813416061502        3.92534102985478
C           46.50480294144830        5.81552001058674        5.07936262145171
N           46.45188180471335        6.85648522960660        5.99242264075829
C           47.55686163280657        7.06343140986221        6.91862392293126
C           47.26432297372260        4.66191370755286        5.29749046284017
C           47.24874855488736        3.63421479766350        4.37086173507532
C           47.66291627949654        2.21447632282851        1.66416790340060
C           48.91791827195973        2.86190657567534        1.90498049762845
C           49.86633997966126        2.12532415827650        1.27568768290317
N           47.84195682800146        1.12339764914602        0.84818872086585
C           49.18746657295496        1.03741587679059        0.64587916125399
C           49.84837409905597       -0.02218077373260        0.01066817614582
C           49.16740775361118       -1.06524904264732       -0.63082118831254
C           49.82305335775991       -2.18807877752778       -1.22276238121089
C           48.86429319771515       -2.90708853266721       -1.85662724371698
C           47.62783649187039       -2.20964733179949       -1.66350742844345
N           47.82471283974626       -1.11087076490450       -0.86121021031543
C           46.42911773902668       -2.56026553883606       -2.27256899781243
C           46.42008165816635       -3.68448863445899       -3.23198474324586
C           47.25012996113404       -3.67210072913805       -4.35532848944484
C           47.24715059395869       -4.71935677650633       -5.25999622979829
C           46.41894052702416       -5.82624385182032       -5.05002267699209
N           46.34594025445620       -6.88242986033958       -5.94393418816903
C           47.47267314018245       -7.16679683973894       -6.82219010198823
C           45.58060131081115       -5.84157630412055       -3.92779799628213
C           45.57929564494744       -4.78497636914782       -3.03783754450521
C           45.23655483715655       -1.88673193643641       -2.01667534151649
C           43.99427549620989       -2.16626822289331       -2.67666620390737
C           43.04940083110471       -1.40527759152754       -2.07371585880301
C           43.71723029701013       -0.65303284162559       -1.05551532690895
N           45.06130604222373       -0.92256645259687       -1.06230780459393
H           41.98519526183653        0.17820821686007       -0.16594089369966
H           41.96369878737553        1.67630721119224        1.97148253562901
H           43.85927757576903        3.03065016051861        3.32925768697717
H           45.09443940440671        4.94914998850026        2.11360509984401
H           45.11978854841610        6.78796439695425        3.74935478360924
H           46.12146378430368        7.72223171835128        5.58367201500505
H           48.51750199241699        7.11620099261572        6.39369662390857
H           47.59057325978301        6.25298045936562        7.64785859070342
H           47.38265179923152        8.00081391593903        7.44680861895437
H           47.86773268314179        4.55966373319002        6.19108338827763
H           47.83513573074774        2.74080407707270        4.55625228179711
H           49.04772991925530        3.76800004413336        2.47416653140409
H           50.93098049568022        2.29095268039884        1.23522721942522
H           50.88013223807095       -2.38881854729808       -1.15310135405868
H           48.97587339272933       -3.82989887085947       -2.40231030903340
H           47.88949571383953       -2.81465543822954       -4.53535499938149
H           47.88957401491248       -4.66844778531577       -6.13050580195823
H           45.95386722762932       -7.72058687212532       -5.53222313358800
H           47.57744593185607       -6.37458988743322       -7.56461283391326
H           47.26856334896066       -8.10442751952922       -7.33909199593570
H           48.40842794771209       -7.25935701838950       -6.25923292900876
H           44.93138130817315       -6.69430278242837       -3.75904282029709
H           44.93933490049594       -4.82033603686255       -2.16297806563965
H           43.87279100888029       -2.85233199275029       -3.49923814751804
H           41.99342643044746       -1.34666890543652       -2.28537661419023
Fe         102.07017609910983        0.03588069092002       -0.06390824538871
C          105.44937930751799        0.10062556593066       -0.16050112786042
C          104.81013442541706       -1.00756920335914       -0.67889844772470
C          105.49127009057804       -2.14663226218784       -1.21468413841132
C          104.53990980243481       -2.95798281616169       -1.73622989508007
C          103.27973582396022       -2.30299728717321       -1.53576724425747
N          103.45519675874860       -1.13882310605969       -0.83830217284639
C          102.06935205372487       -2.75514623333152       -2.05637278656221
C          102.06545229939813       -3.95728547581051       -2.91621423294135
C          102.84374508765713       -4.01266507003848       -4.07670493994699
C          102.82675504118936       -5.13159615241478       -4.88680000919997
C          102.03462352090386       -6.23846727651616       -4.55574828420297
N          102.09172141582691       -7.35905393567521       -5.36901468156534
C          100.98564902418036       -8.30681368651538       -5.37338906139921
C          101.26851293021160       -6.19596349485241       -3.38678440835919
C          101.28029197928036       -5.06525671969714       -2.58896324181595
C          100.86382014099277       -2.11028274496649       -1.80630209759865
C           99.61242044040877       -2.48558275952509       -2.39394101765967
C           98.66162100459739       -1.70526880253881       -1.82375539293091
N          100.68052948662162       -1.07197451913458       -0.92501570700219
C           99.33538965014571       -0.85168956323250       -0.89711122051665
C           98.66952607294107        0.00301750285962       -0.00890575611609
C           99.34548890174948        0.85302417641063        0.87656665289807
C           98.68459840939298        1.67383720222551        1.84120199523626
C           99.64102525773511        2.44475102099970        2.41480924954035
C          100.88127632555620        2.10402974289498        1.78372591800167
N          100.68865840567952        1.08467326566980        0.88167240613516
C          102.07919632697407        2.77381936262265        2.00071261254458
C          102.08561680943382        3.95305001951310        2.89171884352891
C          101.25749881653086        5.04817662607395        2.63486857894092
C          101.26015069074376        6.15797152747082        3.46167383466234
C          102.08610651155955        6.19146853119578        4.58945216778736
N          102.15978695296181        7.29318046268780        5.42670832583627
C          101.03414893161630        8.21370116947285        5.51262852142390
C          102.92192508303980        5.09777477064837        4.84938272348011
C          102.92359225588854        4.00031464140708        4.01030636790190
C          103.27403977944691        2.37897419318801        1.40238956968165
C          104.51515503838579        3.08535634363116        1.53531934815433
C          105.46251847695342        2.33284956098035        0.92565735274041
C          104.79756978897713        1.17450816821375        0.41114641498192
N          103.45258429934916        1.23847847250104        0.66860355823634
H          106.53273590588016        0.12576750423831       -0.19841957492723
H          106.55969146027633       -2.29122973180939       -1.18490353776357
H          104.66908879603034       -3.91685330043107       -2.21153565785085
H          103.44547796681928       -3.15534847857296       -4.35793818466897
H          103.42698559171426       -5.15675326096506       -5.79024395309214
H          102.42760861999803       -7.15144356570086       -6.30171386521416
H          100.02665096905884       -7.80542033290928       -5.54692925170976
H          100.94522612134593       -8.83905579683773       -4.42215745736688
H          101.16414167434748       -9.02917166139426       -6.16985610490570
H          100.66287093252302       -7.04453514342702       -3.09316599159058
H          100.68864642647301       -5.04838939368858       -1.68007098588931
H           99.48655614443895       -3.24190005367041       -3.15156443261307
H           97.59840569282096       -1.69959747351679       -2.00285141410777
H           97.62595827655657        1.65108900803507        2.04454774368203
H           99.52548279442551        3.17577338827434        3.19843540090582
H          100.62021665189884        5.03956656235377        1.75725619347191
H          100.61948681708573        6.99778663284248        3.22215327820791
H          102.55008827992059        7.07219228888916        6.33479236946684
H          100.93112974119727        8.76683258587221        4.57818583297787
H          101.23834509031894        8.92135558332667        6.31608326123964
H          100.09747318705398        7.68544014635342        5.72405655124957
H          103.56918436307993        5.11655155830442        5.71990146812310
H          103.56192908469397        3.15296593954983        4.23548058912148
H          104.63413222544008        4.03743617855870        2.02670916296531
H          106.51850541808517        2.52808257478454        0.82521458178864
C           51.24754446038212       -0.04145217811320        0.02119074637832
C           52.47414518006668       -0.05276243591298        0.02634565394524
C           53.81306270105735       -0.06295453645957        0.03236336270899
C           55.04606324518904       -0.06723927152786        0.03005019921421
C           56.38025364057379       -0.06810240586515        0.03200075722595
C           57.61328173951472       -0.06510803186302        0.03053892446327
C           58.95209860046275       -0.05828196862327        0.02716230876756
C           60.17887030947180       -0.05246706609035        0.01772200882577
C           69.80059507684403       -0.02993403871983        0.07595613479570
C           71.02711988910980       -0.04083903812625        0.10435134780296
C           72.36552076763492       -0.05130294134194        0.13014531032165
C           73.59857616879985       -0.05410995915723        0.14773310488086
C           74.93250612985510       -0.05758116898157        0.15867596474699
C           76.16567237158583       -0.05587340951132        0.16165352197146
C           77.50429644025820       -0.05073242358845        0.15461554648967
C           78.73111533766806       -0.04272289567931        0.13968885343118
C           88.33905781185958        0.03596038738102       -0.03926077882846
C           89.56587165073444        0.03348810313837       -0.03712411608156
C           90.90462413060385        0.02514471091422       -0.03084473585066
C           92.13761664996538        0.02038837898102       -0.02285364912591
C           93.47172121413928        0.01512501443640       -0.01470795898089
C           94.70466524629917        0.01221035084513       -0.00847034879464
C           96.04358364062620        0.00535926556376       -0.00403567927697
C           97.27023601824284        0.00358607571573       -0.00235073729229
Fe          64.99057868400756        0.00024964920640       -0.00639087851687
C           61.57795098071965       -0.03945453732915        0.01220063408801
C           62.25608394474489       -1.10108773603590       -0.60099449942314
C           61.58484431731853       -2.19144527234971       -1.23432818251375
C           62.54231598133230       -2.93574908926089       -1.83945914905122
C           63.79642109154565       -2.30408035149565       -1.55854372475096
N           63.60454221523657       -1.18861388787496       -0.78025270616619
C           65.00918409571543       -2.71243488012535       -2.10285130344300
C           65.01660140852215       -3.87433083128666       -3.02111141207503
C           64.64142828316953       -5.14336540078140       -2.57188603431550
C           64.64835840732680       -6.22610980684413       -3.43030009290942
C           65.01716524905115       -6.06841777161467       -4.77242905886647
N           65.05047279247106       -7.19133897401060       -5.58330416830056
C           64.96772452913028       -7.04496487041971       -7.03001940387070
C           65.39971199268716       -4.80167819371079       -5.22418627469945
C           65.40023273421365       -3.72444167470636       -4.35471745376532
C           66.21643079640934       -2.08496844427269       -1.81839422730884
C           67.48157883280402       -2.52830893341400       -2.32265053904386
C           68.43087580178681       -1.77882020106469       -1.71135310656294
N           66.39384830962187       -1.05947747805784       -0.92119232288432
C           67.74255267407251       -0.88476575562530       -0.83516385741575
C           68.40209510876159       -0.01316629586983        0.04164018548968
C           67.72316937728517        0.88030608517090        0.88073029062869
C           68.38757745926446        1.75274280398452        1.79578770925705
C           67.42838297632852        2.53319137450243        2.35158002342859
C           66.18368727916889        2.13901241983648        1.76369713994701
N           66.37708412654132        1.09428897667868        0.89359251673811
C           64.96963860363428        2.76749654044026        2.02035309207319
C           64.96184720623432        3.96000762569306        2.89369848031139
C           64.19505470176252        3.98614017923774        4.06088965511872
C           64.19082201191141        5.09371639443425        4.89045733594281
C           64.95720112789238        6.21744219255799        4.56544914008998
N           64.94775941537912        7.37262817102229        5.32890850453286
C           64.58351462102496        7.31063651280301        6.73759989647554
C           65.71560956333944        6.20229749582213        3.38748169901353
C           65.72328956213580        5.08788835868041        2.57144438643024
C           63.76219129222298        2.31371409676106        1.49993418248742
C           62.50497069187782        2.96640245282376        1.70880223431327
C           61.55538799128065        2.16974791322826        1.15947203932711
C           62.23876022325371        1.04630395852759        0.60215477387191
N           63.58553715964429        1.15868404532431        0.77791901381217
H           60.51764690934488       -2.34432966993319       -1.22529505400228
H           62.41538021043873       -3.82307532194213       -2.43774966039826
H           64.36278989606987       -5.28201854573355       -1.53306974070934
H           64.36708105240243       -7.20875542649344       -3.06661129288772
H           64.47177571622267       -7.94617412916521       -5.23546827469309
H           64.09978481390571       -6.44437627960621       -7.32532470983204
H           65.87563005337449       -6.57539318693333       -7.41075389704419
H           64.88160685053504       -8.04080644382914       -7.46460589663234
H           65.69799356791854       -4.64974560571222       -6.25416199775378
H           65.68225739874661       -2.74328449921561       -4.72089131715496
H           67.61948016079121       -3.32580362054235       -3.03424609784876
H           69.50204213322043       -1.82492046867397       -1.82451808518288
H           69.44978440558263        1.75638026259722        1.98036161444239
H           67.54509999315859        3.30029679767910        3.09956582873775
H           63.61264333458556        3.11317626977964        4.33488252588997
H           63.58937810179065        5.07763588694628        5.79098381292982
H           65.75096046831298        7.96565603279937        5.15982268465873
H           65.17446843827379        6.55913613334875        7.27347716931517
H           64.76546974818447        8.29181085992244        7.17597891859428
H           63.52372149769960        7.07368767383756        6.83984756879806
H           66.29978982842199        7.07606336011749        3.11868808184044
H           66.30740147750235        5.09443962663616        1.65774287239095
H           62.37340211144954        3.91437831041958        2.20426862112085
H           60.48837038868794        2.31973499225863        1.12350704862179
Fe          83.53419544970500        0.03301280229060        0.01114498356840
C           80.12949380839315       -0.02679879063445        0.11228725170171
C           80.80121963201483       -1.09602160362206       -0.49583869600313
C           80.12835623493461       -2.21092172060115       -1.08330317207641
C           81.07528055290589       -2.94290147159308       -1.71951010852534
C           82.32570735975369       -2.27782933077253       -1.50612613001330
N           82.14275888840729       -1.16111269450919       -0.72703795914580
C           83.51579851467532       -2.63833184385574       -2.12867212720420
C           83.50573341785298       -3.78709195003785       -3.06278370299600
C           83.19880973006580       -5.07339719465840       -2.61066336256279
C           83.19121507866026       -6.14477565906867       -3.48319201186931
C           83.48128944293626       -5.95904514187044       -4.84105130528492
N           83.40066882832907       -7.05177310567436       -5.68872123794158
C           84.11959643231584       -7.04251563112548       -6.95543228653890
C           83.77530061558434       -4.67137005022301       -5.30002576460102
C           83.79586738219119       -3.60622407210177       -4.41609163211148
C           84.71583828725305       -1.97051983987408       -1.90853106456546
C           85.96320510998821       -2.35018590336125       -2.50090649514698
C           86.92382848487495       -1.60158705374020       -1.90522609443022
N           84.91360676636867       -0.97710473579811       -0.98061770610945
C           86.26061971806028       -0.77204524008103       -0.95015260807511
C           86.94020227484269        0.04589207414463       -0.03709579252527
C           86.27745961646180        0.87622936193692        0.87685042538588
C           86.95357067939767        1.69335332637765        1.83323340784986
C           86.00449862866249        2.45736226811153        2.42917484549319
C           84.75428727847802        2.10814921607899        1.82534566110797
N           84.93299924898174        1.09938820966638        0.91166142761853
C           83.55058222118261        2.75576609631521        2.08828452186730
C           83.56243866130792        3.93693227664465        2.97543432110666
C           82.77269754702972        3.97770571738791        4.12695475043247
C           82.78579235929722        5.07801889615488        4.96597631626244
C           83.59332321636008        6.17996909324237        4.66672339531913
N           83.60277478087372        7.32916380053043        5.43882126441677
C           83.20413266664372        7.26975622514684        6.83823908446332
C           84.37646535238738        6.15013529236309        3.50528604429277
C           84.36643674163651        5.04276656238214        2.68003169831523
C           82.33856858729865        2.33007087279593        1.55490294662240
C           81.08843652232434        2.99712223951138        1.76170065101774
C           80.12883195966270        2.20498639967961        1.22256202153360
C           80.79888849316630        1.06987461701513        0.67251457471421
N           82.14737797116348        1.17476574069964        0.83655847320424
H           79.06645219658711       -2.38789265904571       -1.02511111948889
H           80.94213144271264       -3.84153775113350       -2.29921794849697
H           82.98862416176365       -5.23450606102670       -1.55903106991826
H           82.96015621911197       -7.14008867306633       -3.11841621518030
H           83.48046674623100       -7.93630343677084       -5.20217482410986
H           83.66897361339298       -6.31860151561683       -7.63594561781596
H           85.17838228159169       -6.79575515618853       -6.81602873746591
H           84.03589613247472       -8.03539257622094       -7.39719974595783
H           83.98477682480610       -4.49349386687039       -6.34769403012747
H           84.01616034107776       -2.61056303043066       -4.78537204443473
H           86.08452303096473       -3.10887887052119       -3.25669677830426
H           87.98823757656433       -1.61097072359397       -2.07667274321475
H           88.01627804592199        1.67636484675911        2.01427791127035
H           86.13164627173983        3.18553887052216        3.21358480236132
H           82.15815560819080        3.12112553458034        4.38180541088187
H           82.16564156649288        5.07347926547753        5.85386388414117
H           84.42671215189257        7.89904383896500        5.29158528400006
H           83.75732406306824        6.49543617977555        7.38176392251081
H           83.40828203770761        8.24134955627874        7.28798787398055
H           82.13498018192371        7.06748015980019        6.91432379197038
H           84.99349547509227        7.00710783013785        3.25657886240607
H           84.96969538734595        5.03855092342460        1.77883759321378
H           80.96792472492236        3.95050984092918        2.24963909478111
H           79.06310553067688        2.36484693921914        1.18986175509145
