123
 energy: -226.331637512614 gnorm: 0.000567626399 xtb: 6.5.1 (b24c23e)
Co          11.05119280123219       -0.01555003196327       -0.01738161872523
C            7.64250789340416       -0.02543953104670       -0.06709937992040
C            8.31167109321703       -0.88356267642673       -0.91138166914290
C            7.64786804358498       -1.78310127231214       -1.80810065338615
C            8.61698849508236       -2.46441739138220       -2.46105900571368
C            9.86847600508298       -1.97599921791775       -1.96265729298711
N            9.67405442871264       -1.00706913540118       -1.01269030738583
C           11.09010283499631       -2.43503904395640       -2.40497447893742
C           12.29503348294940       -1.95993654639597       -1.94090945876941
C           13.55949673178218       -2.43169030629240       -2.41734461757449
C           14.50826246265008       -1.73628543388530       -1.74793355795447
N           12.46454871145305       -0.98465696488117       -0.98489728683679
C           13.81798732804337       -0.84668150910824       -0.86517730958583
C           14.48008229406328        0.03013535790235       -0.00298862619989
C           13.78817803323675        0.87888132618622        0.86357160189035
C           14.44722229043163        1.77117148643719        1.76715926538812
C           13.47480115012551        2.42159831414750        2.44781944355832
C           12.22727623213748        1.92422834130485        1.95300020331418
N           12.43057432388997        0.97416704941304        0.97841231251179
C           11.00618667321648        2.36575682677762        2.40804733853632
C            9.80066499547538        1.90357717190834        1.92649539709166
C            8.53227086656884        2.37892152571647        2.39391485000099
C            7.58677035362875        1.71105177575205        1.69411784189093
C            8.28175574747136        0.82829408737991        0.80438400063299
N            9.63979349574352        0.95295711018875        0.95206217270998
H            6.55901620368852       -0.02624591190796       -0.08521801485136
H            6.57690233868138       -1.86513867650389       -1.90558472848007
H            8.51897918913482       -3.22953301138459       -3.21485775117607
H           11.10292280457940       -3.20813300298274       -3.16438653562533
H           13.68185404765138       -3.19562589282786       -3.16853355885426
H           15.58119959817472       -1.80502924561752       -1.82833604493068
H           15.51727423989631        1.87014470818800        1.85452012333869
H           13.57050836204453        3.17259120111694        3.21575563444896
H           10.99211428254118        3.12311736280365        3.18313745338718
H            8.40765040107298        3.12890931473076        3.15890494271453
H            6.51298846014218        1.78973491379309        1.75745614022576
Co          48.25091407156079        0.00982926470473       -0.01145775593689
C           51.65981843361199        0.04590119764399        0.00957555864177
C           50.99297913687059        1.24901539914655       -0.05833113909639
C           51.65929086901038        2.51624846837042       -0.12202949376571
C           50.69205855022491        3.46047188002894       -0.17214179475479
C           49.43898804528492        2.76630915902390       -0.13754554979569
N           49.63080319533746        1.41044889186932       -0.07055473538484
C           48.21892237934430        3.40579449614306       -0.16031050848817
C           47.01270239588538        2.74483442448416       -0.12195749269704
C           45.74966247377205        3.41766780985336       -0.13983936491391
C           44.79876532319178        2.45546456449652       -0.09769245989327
N           46.84046928474356        1.38072420156959       -0.06712285243101
C           45.48615832950421        1.20137457737346       -0.05558782857476
C           44.82195716321771       -0.02611121997546       -0.02425439481233
C           45.51126013848438       -1.23941070383946        0.01192161130995
C           44.84994671090799       -2.50764813065179        0.04706777559420
C           45.82049676870986       -3.44993422086286        0.09145697310359
C           47.06934207515698       -2.75084475218779        0.08265273812656
N           46.86896857320725       -1.39048737640329        0.03145253811256
C           48.28891567104809       -3.38653938617645        0.12631822808221
C           49.49541783571136       -2.72144290466391        0.11798008940730
C           50.76241923942472       -3.38909529292856        0.16514812874487
C           51.70994243845180       -2.42431609821939        0.13346022603370
C           51.01777980346969       -1.17119094890455        0.06641276337955
N           49.65929945006875       -1.36151223163793        0.05975237869183
H           52.74335554428412        0.05741258047647        0.01725622114637
H           52.73058644846583        2.64086198962378       -0.12617417384159
H           50.79227950092144        4.53296882121714       -0.22639311243467
H           48.20813277372707        4.48840314144715       -0.20885975843080
H           45.62963390700489        4.48857395752465       -0.18025602136592
H           43.72601953963324        2.56329077922439       -0.09637962301167
H           43.77965907177335       -2.63756134253962        0.03964030488292
H           45.72269378886691       -4.52323012257535        0.12817901290053
H           48.30053708334053       -4.46935463161125        0.16980872860540
H           50.88474809151874       -4.45950456507874        0.21505641141881
H           52.78349648186651       -2.52620607834650        0.15138647667728
C           15.88252115863225        0.05174588651724       -0.00335973354714
C           17.10754520704404        0.06665370209626       -0.00705468601055
C           18.44858010558641        0.07836837938070       -0.01535722556643
C           19.68018508491340        0.08382447651923       -0.02542925651094
C           21.01619288537320        0.08372789994070       -0.03663178108897
C           22.24789230615870        0.07668947116128       -0.04642354611677
C           23.58851331768612        0.06356414536001       -0.04810350774138
C           24.81384823511204        0.04399090252124       -0.04623419919581
C           34.48624351027946       -0.03046792441298       -0.07127943713845
C           35.71140785111231       -0.03403460678237       -0.08019718759764
C           37.05275843052145       -0.03717018965012       -0.08145503310199
C           38.28403914168220       -0.04244407728695       -0.07546239956814
C           39.62079919467659       -0.04438662748160       -0.06855256675389
C           40.85190125701028       -0.04684386202062       -0.05619037679091
C           42.19375242832311       -0.04546617795458       -0.04457814648729
C           43.41846032180122       -0.03953385342018       -0.03344123780147
Co          29.64943512558022       -0.04937141581401        0.00351834315606
C           26.21496660431433        0.01749924875081       -0.03347255398819
C           26.90205713014478        0.90403728090012        0.80003584239114
C           26.23732431330350        1.83685389233613        1.65677423023742
C           27.20596001560321        2.51271271860133        2.31864755114870
C           28.45514813637966        1.99217527741208        1.85468529552658
N           28.25824220143136        0.99994772296532        0.92292024025013
C           29.67482762628390        2.46323663957879        2.28533773517449
C           30.88479649193276        1.99647954335636        1.82279049248458
C           32.14370079137256        2.52216534969238        2.25329673165478
C           33.09802805280975        1.83236243594428        1.58501495894261
N           31.06118449075056        0.99208700353608        0.90047982383892
C           32.41503477692608        0.88581133486461        0.75823643751068
C           33.08418981773701       -0.03510812282400       -0.05172552420039
C           32.39737799732034       -0.97591314063543       -0.82293232544735
C           33.06178172967220       -1.94803579635985       -1.63499616666921
C           32.09268851541830       -2.68530363990238       -2.22706107792775
C           30.84363319565151       -2.15277830482474       -1.77664989372899
N           31.04065407675288       -1.10299891721121       -0.91066347428522
C           29.62368589995756       -2.63663506088477       -2.19313177404529
C           28.41396108905700       -2.11573968482022       -1.79273482026940
C           27.15496720836410       -2.60853408283336       -2.26048446498207
C           26.20087998386657       -1.85414991258238       -1.66566418719903
C           26.88407973585243       -0.91197132559597       -0.83409799084449
N           28.23751867728519       -1.07021292366969       -0.91686143842771
H           25.16694749829437        1.94312729511838        1.72955447540834
H           27.10592060859153        3.29666234942505        3.05225972343153
H           29.68307054804776        3.25824130371151        3.02207343142556
H           32.25953380242156        3.31729968336090        2.97240925008635
H           34.16990517136411        1.93552960359742        1.63729698782080
H           34.13225893687521       -2.03898721517299       -1.72511355657048
H           32.19243029644053       -3.51290546106184       -2.91111943359447
H           29.61563341179293       -3.46929053449439       -2.88706330196963
H           27.03891562473622       -3.42496471377294       -2.95529999430619
H           25.12906369832000       -1.91693764475362       -1.76366718073947
