132
 energy: -242.047308489499 gnorm: 0.000409507204 xtb: 6.5.1 (b24c23e)
C           13.17808056968987       -0.12324694231534        0.04338791828307
C           13.78919034100642       -1.35834455046850       -0.12935687528023
C           13.14042169510659       -2.61620705544473       -0.27891954852129
C           14.10437609892857       -3.56976723315122       -0.44786320319180
C           15.37318026473048       -2.92350075660805       -0.41459513572850
N           15.13265343342254       -1.59502113740618       -0.20928059337026
C           16.63741523662388       -3.51100940594169       -0.53963210045818
C           17.85290081345591       -2.82889069829289       -0.44414392478759
C           19.15052812178420       -3.45312640447886       -0.63096267308792
C           20.07025389857711       -2.48209795976894       -0.45551415284700
N           18.00585611843088       -1.50109088574635       -0.18516987381079
C           19.33316803305701       -1.26491527820902       -0.17539969801784
C           19.96943609885025       -0.03078546369752        0.06982936568575
C           19.33189375783399        1.20502376647340        0.28978434035565
C           19.97316742909880        2.44580628223916        0.54565463934581
C           19.00485293726174        3.40292429914706        0.67267021513707
C           17.74125049858061        2.77513651844161        0.49131420244328
C           16.47802995003952        3.37423617459568        0.55063453139850
C           16.44377405174927        4.84126252121700        0.75430590467628
C           17.04490257697159        5.69733585927731       -0.17288928216722
C           17.00242095174609        7.06691823902237        0.01080800775546
C           16.36310849652086        7.60754289374639        1.12817142874368
C           16.34167888356064        9.08193626548812        1.27963736513950
O           15.69478262961955        9.49967837453171        2.37834467598735
O           16.84783162328997        9.85290760648116        0.50428522713001
C           15.76688740728592        6.75748616780071        2.06022843142774
C           15.80640972860912        5.38713801835701        1.87176761327434
C           15.26146412370464        2.69361008172047        0.42942134163320
C           13.95669388229598        3.33738978867847        0.44748915783847
C           13.04393693852058        2.35446288067766        0.31383074530698
C           13.78984529262799        1.11362886009362        0.19796769731054
N           15.12197769923870        1.35742245973002        0.26257459798649
N           17.99043505273534        1.44613179672474        0.27372076780134
C           16.66959815348781       -4.97037616729752       -0.79694951549279
C           16.07663243137845       -5.49674746509781       -1.94755223960953
C           16.10894443582545       -6.85759045348601       -2.19674278753633
C           16.73178541083606       -7.71762283459778       -1.29174950334396
C           16.79286721016925       -9.18216789939924       -1.51243987912168
O           16.20317722567645       -9.57858249221498       -2.65065977008286
O           17.31552840021559       -9.96291061507999       -0.75831540646140
C           17.32139216186686       -7.19681317711746       -0.13823344164691
C           17.29273476771116       -5.83622867413950        0.10584661595111
H           12.09281284883299       -0.13434786816578        0.04863595301876
H           12.07203049066590       -2.75983616522292       -0.25391303133219
H           13.95583690429426       -4.62981595142477       -0.57497269195842
H           15.85578927144022       -0.88824726682895       -0.12707581745024
H           19.31390173494253       -4.48982276715667       -0.87667070777660
H           21.14436402803432       -2.55427349464011       -0.51470611712729
H           21.04005870479214        2.57858113424665        0.62503746133600
H           19.14950645270220        4.44976543018196        0.88428135670042
H           17.52796898976743        5.28098669161804       -1.04963038878619
H           17.46006228877911        7.73661067754951       -0.70904648062591
H           15.72531290093757       10.46986566672660        2.40268813023219
H           15.27429463468265        7.17233545847530        2.93166552184516
H           15.35443906741846        4.72680648415700        2.60319777181650
H           13.78699025881983        4.39823981754473        0.53721574087146
H           11.96843933136891        2.43102338281537        0.28149228598764
H           17.27060845547768        0.74635781117045        0.12623349563185
H           15.60523236247735       -4.82760633093373       -2.65865936038415
H           15.65319620027918       -7.25662409253883       -3.09518765891431
H           16.28866101374685      -10.54320598940751       -2.72125191470033
H           17.79944017729332       -7.87467211931773        0.56038563327548
H           17.74048823326611       -5.43538472424228        1.00801341253746
C           35.93509907368254        0.08879427957820        0.09828799676067
C           35.32409564529500        1.27174337252258        0.49331836742627
C           35.97322916336317        2.46419917622159        0.92014126059442
C           35.00955080490846        3.39313720387944        1.19473650470123
C           33.74053374954800        2.80000003387903        0.93704127891349
N           33.98071601674844        1.51956946574322        0.52752728493060
C           32.47631797204272        3.38089653957881        1.09014726690131
C           31.26083108233314        2.72761565754697        0.87194471232345
C           29.96294766760731        3.36818840618916        0.98801700699930
C           29.04345113799481        2.42137119323162        0.70935959177829
N           31.10818799292172        1.42499424941586        0.50656897718754
C           29.78091178237820        1.20883032683705        0.41066835954711
C           29.14493997838467       -0.00363990133313        0.07369782116455
C           29.78244078708513       -1.20610248637913       -0.28652375743301
C           29.14063467669930       -2.42847897689755       -0.61840958198804
C           30.10868772924973       -3.34133921144013       -0.93363186265604
C           31.37270482975680       -2.70057914188465       -0.80964110323466
C           32.63595019027679       -3.26418047288017       -1.02118989761273
C           32.67020745861791       -4.66659087144933       -1.49743351481066
C           32.07237124159850       -5.01491773263482       -2.71202916839683
C           32.11492767703359       -6.32129128417048       -3.16243760079564
C           32.75106673420147       -7.30653533710495       -2.40470093503233
C           32.77298625704847       -8.69202716308917       -2.93116391909501
O           33.41465260953805       -9.55953608834212       -2.13378267712736
O           32.27104217087587       -9.03218475711321       -3.97238114586165
C           33.34395631961460       -6.96579513532918       -1.18847943313320
C           33.30431850790635       -5.65660270097690       -0.74194891132245
C           33.85253074634603       -2.60282709236969       -0.81973925853452
C           35.15774745639276       -3.18784965185973       -1.08677937278411
C           36.07014792829724       -2.24953434938976       -0.76394613539705
C           35.32363555966492       -1.08704774013708       -0.31584639427817
N           33.99151752561146       -1.33317548555334       -0.37095499381811
N           31.12392067169308       -1.41549944857197       -0.40663808867842
C           32.44447333764283        4.80081537185550        1.51427735790329
C           33.03547538034787        5.78732939675124        0.72048043517863
C           33.00427232528660        7.11538961605394        1.10822004761060
C           32.38455188252554        7.47819825676166        2.30444123528931
C           32.32558214337389        8.88604366062718        2.76472406288185
O           32.91315019142528        9.75085878095642        1.92369265140609
O           31.80546441687973        9.24560763382083        3.79028158338523
C           31.79659241399609        6.49539584443187        3.10314978250611
C           31.82416899314628        5.16986418080072        2.71097032090159
H           37.02035865981917        0.09594663950869        0.10949272476613
H           37.04168267960507        2.58143509492478        1.00600308453226
H           35.15843579247416        4.39859817513307        1.55361996892372
H           33.25723224049131        0.85058162436455        0.28619078850750
H           29.79920505751253        4.40442199370423        1.23541671731932
H           27.96925118746358        2.51170398814668        0.69076336379089
H           28.07355425252992       -2.58160013642415       -0.61003015104226
H           29.96354224577932       -4.37115696404203       -1.21645849727387
H           31.59187205235657       -4.24891815091968       -3.31014904457509
H           31.65987641658641       -6.59620403832273       -4.10768206570001
H           33.38468610940722      -10.43735284364767       -2.54770622866126
H           33.83413565432500       -7.72807161360470       -0.59448862092502
H           33.75361646778622       -5.39531944104423        0.20945797391399
H           35.32807877239362       -4.17711103269058       -1.47996203631443
H           37.14581285252196       -2.30446688364722       -0.82330179811712
H           31.84418075679211       -0.72514480892703       -0.22162982607555
H           33.50459278576498        5.50820240148143       -0.21634972142884
H           33.45859572900879        7.87496850494243        0.48309423449328
H           32.82889696088597       10.64462283902345        2.29365215366404
H           31.32096984444874        6.78790890931271        4.03283479021199
H           31.37791927380134        4.40702131367939        3.33866010860359
C           25.17141469133581       -0.02698462617010        0.10497032265510
C           23.94297068759194       -0.02141700572718        0.10664785997677
C           22.59887143647641       -0.01861248737942        0.10074461734514
C           21.37487685405161       -0.01950790366397        0.08763858141694
C           26.51550354929820       -0.02797617903373        0.09677938656489
C           27.73949457791102       -0.02232207592980        0.08464537886540
