122
 energy: -206.238976892163 gnorm: 0.000571553618 xtb: 6.5.1 (b24c23e)
Fe          12.65710499475758       -0.04460022757164       -0.02073031342884
C            9.27483278195088       -0.05554122606094       -0.16604429788345
C            9.91894814894861       -1.26748638526429       -0.02270447551742
C            9.23731307709677       -2.52047902710801        0.10128642192166
C           10.19086953739437       -3.48190805900898        0.10713245796425
C           11.45412911352873       -2.81522258200846       -0.02920076940289
N           11.27545651877376       -1.45791746097310       -0.05826374586588
C           12.67139727565511       -3.47146384115376       -0.17685506446365
C           12.68026524935379       -4.94988602810033       -0.26476417646713
C           12.02343140653184       -5.59811036266208       -1.24087940203844
C           12.01097431691402       -7.09862930563392       -1.35419302209288
N           13.04778850863688       -7.70395864185393       -0.51710550476123
C           13.56491926868760       -7.04049836941893        0.56038572501623
C           13.44159875238152       -5.70841394146132        0.71426323353372
C           13.88229390222993       -2.79573703307424       -0.25951210493776
C           15.14543341027859       -3.43729731056741       -0.47266880096726
C           16.09219583958983       -2.47043658926499       -0.40398642495342
N           14.05635989664209       -1.44170185896138       -0.10624289565105
C           15.40488346692667       -1.24189727620117       -0.15633306556116
C           16.06105281208904       -0.03062373070062        0.08856053946897
C           15.38054651249483        1.17245260238336        0.30558464814495
C           16.04053009285750        2.40333209692021        0.60970937073598
C           15.08169879850528        3.36020549839135        0.63989556782143
C           13.83981783050087        2.71103982039096        0.34140670150033
N           14.03515425389705        1.36038074909458        0.18229283889223
C           12.63341414117333        3.37974544086105        0.17924367714837
C           12.62584461598934        4.85791832099646        0.27637438350447
C           11.89996537652178        5.49685387414580        1.20849360541780
C           11.86769676173265        6.99633135844798        1.33070253040615
N           12.92164853495554        7.62180489670825        0.53049805737968
C           13.52245820674797        6.96104831342511       -0.50287484068422
C           13.43930159385957        5.62515363727976       -0.65214663381029
C           11.43667514491976        2.71853396575335       -0.07482288915301
C           10.18594927023940        3.37945426561409       -0.31455292433824
C            9.24356461765291        2.41198104416312       -0.41275050462531
C            9.92030632009165        1.16160138642396       -0.24311028303494
N           11.26609783995782        1.36013382311657       -0.07848062036326
H            8.19172683056109       -0.05972735823702       -0.21713388555627
H            8.16680964274681       -2.63046852077587        0.17459334465662
H           10.06264665407969       -4.54826957363939        0.19979223550192
H           11.45810399698404       -5.06628933670248       -1.99716029551966
H           12.19119864294137       -7.40224387699343       -2.39470878981539
H           11.01856553571268       -7.49392336603915       -1.06806126836478
H           13.00091567517944       -8.71011851193699       -0.45575947590322
H           14.14418516283447       -7.65709883620743        1.24012935943697
H           13.89550762539498       -5.19557059978175        1.55020541834751
H           15.28088308444291       -4.49139990105432       -0.65284413611099
H           17.16126746887424       -2.56596891881818       -0.50625014659001
H           17.10101765098793        2.50616527069382        0.77507535294385
H           15.19511443909992        4.41253084679819        0.84417109434544
H           11.28960915359722        4.95716148014353        1.92311768142223
H           12.01060369436132        7.29449069041865        2.37911098648777
H           10.88046207002021        7.38223035097287        1.01645460558669
H           12.85592741771270        8.62602241794658        0.45911150539519
H           14.12785672438010        7.58565817568053       -1.15186011209587
H           13.95759729438295        5.11666626363781       -1.45250918345040
H           10.05861827519252        4.44650159011629       -0.40067882129128
H            8.18359760345669        2.51641265574873       -0.58316458728830
Fe          28.63307137026771        0.04766568491181       -0.01096960828061
C           32.01538743390992        0.08851490981150       -0.14982493460927
C           31.37157192549682        1.24162217300682        0.25028621665461
C           32.05345735713203        2.43846177787091        0.64091727529830
C           31.10012985681232        3.37647704784148        0.85294277640291
C           29.83676977141338        2.75508854990068        0.57604431911366
N           30.01512639709891        1.43569661917993        0.25603221078520
C           28.61969300999691        3.42808369436827        0.57234812412054
C           28.61140168601296        4.89091252263651        0.80394643217427
C           29.26883714838052        5.73317303424212       -0.01018253321106
C           29.28219628718711        7.22301593462210        0.20131112660029
N           28.24524820656876        7.63514986384260        1.14841231286819
C           27.72763486142248        6.75619663089284        2.05844014535775
C           27.85025415774603        5.42205559522065        1.92288484303181
C           27.40871363336483        2.78623285441431        0.34594250766206
C           26.14580600631576        3.45901513155098        0.27515370005419
C           25.19882469867665        2.50030834841205        0.13373014229758
N           27.23431129924677        1.43095698703486        0.20438432093828
C           25.88573714491015        1.24702820090839        0.11183412900691
C           25.22906386484481        0.01174870894946        0.09063154583061
C           25.90908999615316       -1.21020555816620        0.04489125911955
C           25.24872327640211       -2.47746688944577        0.07795044234148
C           26.20739071277821       -3.41886246112795       -0.09700183419772
C           27.44951490980474       -2.72117363301234       -0.24901910905110
N           27.25447356741424       -1.36774024119433       -0.11517912529648
C           28.65585891727251       -3.33985827868343       -0.55042256827509
C           28.66281907972542       -4.80443414912958       -0.77273182306271
C           29.38818225788066       -5.62897883774795        0.00054336376347
C           29.41946082900905       -7.11977928177549       -0.20182489822151
N           28.36561399294822       -7.55828442988505       -1.11805840694398
C           27.76517801401575       -6.69073605488345       -1.98536410628129
C           27.84903514893210       -5.35399698377650       -1.84429931965809
C           29.85281939893682       -2.63987359237809       -0.65639145527842
C           31.10349079606181       -3.23439332078139       -1.03185410061014
C           32.04612556815262       -2.26864490999621       -0.92004425603186
C           31.36960104005563       -1.08351749466068       -0.48645104474777
N           30.02370580824215       -1.31232702896312       -0.36863308221701
H           33.09851386693835        0.10315797607269       -0.19849994176081
H           33.12395474007788        2.52978297556844        0.73656096336907
H           31.22860568534327        4.39795020245902        1.17269937389469
H           29.83406577525436        5.37574869987369       -0.86291477282763
H           29.10273672329399        7.74310146521219       -0.74980679570480
H           30.27466820669515        7.54695936997523        0.56609053731203
H           28.29256937606097        8.60468475348095        1.42424918635706
H           27.14852944388265        7.21287761697891        2.85460409751631
H           27.39595808552975        4.74202123689775        2.62929229135587
H           26.01071533572839        4.52724561810153        0.32597224578398
H           24.12981162253765        2.61582154117828        0.05384211372148
H           24.18815672607061       -2.61315584267534        0.21696670853202
H           26.09365048048203       -4.49048385315308       -0.12275054689591
H           29.99874872714138       -5.25562522974781        0.81436550461246
H           29.27575597946102       -7.63581416931283        0.75815299447314
H           30.40663755132626       -7.43000509709050       -0.59109930881041
H           28.43089476249082       -8.52377126990007       -1.40342523328817
H           27.15951180340195       -7.16109845445780       -2.75331702753734
H           27.33101744583885       -4.68523284824983       -2.51674309701586
H           31.23058862646630       -4.25820710346399       -1.34469603648810
H           33.10613701647389       -2.33442080603403       -1.10852357212188
C           21.25959866626268       -0.01840180626934        0.14014539000408
C           20.03052229891986       -0.01735426759759        0.14103326017630
C           18.68765959388905       -0.02339161808506        0.13207263514522
C           17.46324840312244       -0.02255707533019        0.11780316012027
C           22.60245144322462       -0.00969781835488        0.13128819131406
C           23.82685535009604       -0.00216709912014        0.11694981029599
