128
 energy: -244.048110276155 gnorm: 0.000590971876 xtb: 6.5.1 (b24c23e)
C           12.85543873605429       -0.43205722288656        0.13694827711332
C           13.46637310166374       -1.15120399517141       -0.88197292511565
C           12.82014181964905       -1.92663096525862       -1.88520899280076
C           13.78596390974564       -2.47344595520598       -2.68219416410558
C           15.05484799295204       -2.06485764306358       -2.18031588047983
N           14.80987103214976       -1.25553555391998       -1.10694661000531
C           16.32250483258836       -2.41696424334373       -2.65591777408832
C           16.37293238706852       -3.33662730600606       -3.81903572229177
C           17.00342355938437       -2.92155995022762       -4.99569751493717
C           17.04441677049132       -3.77056145398148       -6.09415233917550
O           17.63521842560973       -3.42862535946311       -7.28235807489619
C           16.46639644714132       -5.03560510045228       -6.02477601712416
O           16.49383885088650       -5.89295937982388       -7.09313417811233
C           15.84278385707329       -5.45410717760173       -4.84820234490958
O           15.28853476596556       -6.68958072496641       -4.78908666433294
C           15.79340190907302       -4.60379442801225       -3.74966488634177
C           17.53297125292141       -1.97327853303991       -2.11489773213672
C           18.83084485811615       -2.47396207087560       -2.52892109270185
C           19.74706180714454       -1.81978226283620       -1.78522643880368
N           17.68307914523159       -1.04621870721897       -1.12985777282295
C           19.01073239641034       -0.91440882892575       -0.92610758512605
C           19.64184902138017       -0.00998080937279       -0.04817976672981
C           18.98789065947407        0.87110103538346        0.83487234605425
C           19.59949966965199        1.86756516273859        1.63906443394049
C           18.62164762739939        2.47853933048853        2.37442376565333
C           17.38075675368304        1.86558039933097        2.04820283697971
N           17.65050965003105        0.91668148206386        1.09746965807983
C           16.12149216774307        2.15821753338172        2.58461429200694
C           16.07210100337749        3.17834338786106        3.65966214267211
C           16.80301742970886        3.00080187966476        4.83523281116098
C           16.75200427919969        3.95929078797203        5.84038644471215
O           17.45301049581597        3.79252380897872        6.98842052702493
C           15.97352861352002        5.10534688546318        5.67000645999061
O           15.94589414633652        6.03519591721396        6.67614607104329
C           15.24596412531274        5.28394868604022        4.49618376823978
O           14.50829712606799        6.43484055975509        4.39890046754808
C           15.28969411055597        4.32478208700933        3.49249935304383
C           14.92220014469969        1.56192917925964        2.18013884797744
C           13.63301637299027        1.80520213414158        2.80883252844403
C           12.72915330093835        1.07665543325896        2.12277233646060
C           13.46578586615157        0.38359505182883        1.08103558530432
N           14.78522866168716        0.68462152927744        1.15779202983840
H           11.77438088834398       -0.51376416320721        0.18697187297533
H           11.75152083638100       -2.03667718713985       -1.97892267627589
H           13.63740461594667       -3.10216262879481       -3.54497994714289
H           15.53075280647885       -0.80180074709185       -0.55599128711654
H           17.44338094083441       -1.93331542683216       -5.06052789207354
H           18.01674918245619       -2.54234669334137       -7.23346215827209
H           16.96746834014816       -5.45324906487218       -7.81704963451304
H           15.43029999456888       -7.12874790758404       -5.64389113625821
H           15.32373347717540       -4.94709547697003       -2.83698951412087
H           18.99576091171111       -3.24113121908850       -3.26809464406074
H           20.81878059642352       -1.93218382726896       -1.79075138942012
H           20.65218909826266        2.09680310629251        1.63727972495903
H           18.74621564354630        3.28909164472845        3.07364213953868
H           16.94734177378303        0.33151053491094        0.65871915953130
H           17.39543366328845        2.10777271141203        4.98708461624233
H           17.28418340076564        4.55741215333295        7.56296296281767
H           15.35609372034558        6.75511588595959        6.40141238677566
H           14.03195525922671        6.46675032905502        3.55883288003767
H           14.73356970300849        4.47860381956088        2.57522587974373
H           13.46912108200561        2.43550624024635        3.66819254907708
H           11.66616179592834        0.99091232953302        2.28589136325033
C           30.46348095494553       -0.24016707116250        0.38434445340248
C           29.85254307017873        0.56763186368154        1.33451753753736
C           30.49877092896956        1.34623898928127        2.33528959473371
C           29.53294562769954        1.98198695592677        3.06330771909965
C           28.26406319283187        1.59761895022719        2.54264341381100
N           28.50904375910691        0.75953515597040        1.49157854713950
C           26.99640499930662        1.97057545876486        3.00207398168068
C           26.94597657792077        2.86811129840869        4.18235069461234
C           26.31548443216118        4.11105933460488        4.07329666131326
C           26.27449200620849        4.96355867766588        5.16903924379775
O           25.68369035640142        6.19948078363767        5.13368769142105
C           26.85251344422243        4.58141944132528        6.37697831124869
O           26.82507170878569        5.40269006039616        7.47331777128646
C           27.47612692245057        3.33770156372343        6.48938068649320
O           28.03037712879416        2.97286176399462        7.67123523419107
C           27.52550882239697        2.48544907478066        5.39234744725647
C           25.78593962860439        1.55704363627464        2.43766890230487
C           24.48806498615954        1.83338553144902        3.02565818880579
C           23.57184947377815        1.27596615657789        2.20692769920953
N           25.63583363728067        0.83381884477193        1.29456325417482
C           24.30818093389708        0.66929738025337        1.11617716327570
C           23.67706627664040        0.04416880845821        0.02166154943437
C           24.33102613978223       -0.59173827554734       -1.05151422964924
C           23.71941776499458       -1.12254692635896       -2.21680765162378
C           24.69727077270880       -1.68265079853279       -2.99161352015314
C           25.93816201276863       -1.51929023194923       -2.31674220387006
N           25.66840774893312       -0.83471764972199       -1.16103351646685
C           27.19742851703494       -1.96595153989433       -2.73371033208364
C           27.24682102786860       -2.75318633022817       -3.98935598891461
C           26.51591282087241       -3.93594935280772       -4.11006603690405
C           26.56692457192366       -4.67083283670923       -5.28861652929891
O           25.86592574068975       -5.82424336746564       -5.41290691383552
C           27.34539078806903       -4.22049345137797       -6.35617587087557
O           27.37302353551218       -4.96346208052371       -7.50723360368949
C           28.07294745932149       -3.03915955596430       -6.23692780122480
O           28.81060511617657       -2.65841178676258       -7.32736839404716
C           28.02921867367305       -2.30586766007043       -5.05808681810113
C           28.39672153403257       -1.72264670880702       -2.05550638980332
C           29.68590910487787       -2.27096852872790       -2.44764235954832
C           30.58977228042299       -1.78786946223410       -1.57124394808844
C           29.85313558531076       -0.95147883363277       -0.64065664141246
N           28.53369117374151       -0.95089160649784       -0.95130690470849
H           31.54453999587908       -0.30894444979690        0.45101855497125
H           31.56739193342708        1.40961576230008        2.46519709105236
H           29.68150144260362        2.66108462541488        3.88702574857016
H           27.78816370622958        0.33887931455478        0.91496932066699
H           25.87552645014238        4.41988338601244        3.13230920677759
H           25.30215921724249        6.37277370891802        4.26314191232201
H           26.35144181469160        6.21328273433963        7.22768012678523
H           27.88861185117493        3.69141522581707        8.30938834120598
H           27.99517862103580        1.51604258426183        5.49761697519178
H           24.32314747388206        2.35829486436074        3.95269420384658
H           22.50013047634847        1.25333251265414        2.31716461597355
H           22.66672794526937       -1.06375416454929       -2.43838311236415
H           24.57270292959243       -2.15807123252069       -3.95071560580893
H           26.37157536946766       -0.55545416468220       -0.48506066446817
H           25.92350385406232       -4.30534950366751       -3.28295533685053
H           26.03474960168626       -6.19027039361419       -6.29674992673361
H           27.96281454436630       -4.51814382923721       -8.13609457148075
H           29.28694206458349       -1.83684640080585       -7.14913603816786
H           28.58533630168721       -1.37917556767256       -4.97870753325630
H           29.84980682448766       -2.94635646792887       -3.27204113356059
H           31.65276615219074       -1.96718622530252       -1.52881589996993
C           21.05083919202399        0.02826174574706       -0.04394665862182
C           22.26807618567392        0.04959224748821       -0.01643447020365
