232
 energy: -415.341459311513 gnorm: 0.000743794746 xtb: 6.5.1 (b24c23e)
Fe          33.30145715993780       -0.02152852413964       -0.02724518294483
C           29.91364856308605       -0.05168700192130       -0.04545750209893
C           30.56967969535389       -1.26538942043840       -0.04366141813146
C           29.89805367475333       -2.53005721240118       -0.05023364517203
C           30.85533313531263       -3.47862835830565        0.07692937865744
C           32.11263329886690       -2.79202479242927        0.15426833894174
N           31.92501622257950       -1.43955093409727        0.05827167845264
C           33.32648066129357       -3.42021099648262        0.40942553059550
C           33.33677458995275       -4.89163858100840        0.58830176884319
C           33.66093498797099       -5.47023433686680        1.81420399492001
C           33.65577907265939       -6.85149928338993        1.93045052326012
N           33.35866726651392       -7.66226686878896        0.92015584690352
C           33.05051648620499       -7.11782494162839       -0.25246239579161
C           33.02347405348794       -5.74850847526485       -0.46558332733906
C           34.52813969684362       -2.73317997020287        0.50165866570326
C           35.79260896410621       -3.36197094123070        0.74485383122786
C           36.73724217696069       -2.39798057907941        0.63091304387847
N           34.70224387001709       -1.39039435912858        0.26294102640820
C           36.04942858089993       -1.18606284222281        0.31163639244624
C           36.70820564350853        0.00747143370178       -0.00609617965875
C           36.03002912602174        1.19146399461487       -0.31828183858019
C           36.69519071389759        2.40806049924537       -0.66590818825703
C           35.73559689234074        3.35867121750521       -0.77083581705109
C           34.48678742979514        2.71905959238787       -0.48061714589293
N           34.68148122598676        1.37939088557046       -0.24394022232309
C           33.27146387416069        3.38528150273368       -0.40831451134164
C           33.26085735361393        4.85682218755910       -0.57261979272333
C           32.56821295884700        5.46572771502961       -1.61837133894887
C           32.59167174064094        6.84701510046560       -1.72983986388807
N           33.24308358813559        7.63167807043097       -0.87746277343225
C           33.90376277751946        7.05922143659925        0.12374141786457
C           33.94498525128106        5.68711788471315        0.31449176069880
C           32.06392977487406        2.72988486725326       -0.19374377036503
C           30.79708527811675        3.39401189975640       -0.08438646483149
C           29.85465510314517        2.42640156634057        0.00730904741026
C           30.54719384145175        1.17374852311485       -0.03121828016731
N           31.90043373833638        1.37318274032524       -0.11439316278952
H           28.82954927979011       -0.06166084029122       -0.05165591142786
H           28.82979564461505       -2.65464841178034       -0.12948447744692
H           30.73291447913465       -4.54819339035203        0.13049764914199
H           33.89969388443014       -4.84744841461081        2.66798876251656
H           33.90082676302417       -7.32638959225615        2.87596253105603
H           32.81500455551557       -7.80634449827867       -1.05872325489131
H           32.77673778075007       -5.34873662079031       -1.44187853054009
H           35.93095833917880       -4.40943722592225        0.95736800361532
H           37.80646134873773       -2.48684639629615        0.73640365716996
H           37.75964769474933        2.50691612227549       -0.80534583315468
H           35.85170449571260        4.39906419392647       -1.02715912619118
H           32.03252056267208        4.86500727434083       -2.34367484328628
H           32.06392396727065        7.34417556584767       -2.53847444836655
H           34.42443097188107        7.72670424788414        0.80415098738915
H           34.48844419385082        5.26456971182455        1.15117731454002
H           30.65997420192737        4.46313192246179       -0.07773826725987
H           28.78489812730812        2.53130698247908        0.09443248964653
Fe          81.24821670007729        0.03700112759741       -0.02115920335133
C           84.64210969460670        0.04931809725626       -0.05540618831046
C           83.99201625622557        1.22866355895995       -0.35309719117522
C           84.67501927114675        2.44993195768233       -0.65694986325162
C           83.72111028344742        3.39319782917385       -0.83554288668234
C           82.45572511341538        2.74324202526940       -0.65032697704445
N           82.63493094545748        1.41818169846422       -0.35818018843666
C           81.23301463942310        3.40223130022329       -0.70678971985205
C           81.22694298287460        4.85628480312729       -0.99527077997934
C           80.79931589940064        5.77976491256898       -0.04272791567216
C           80.81380493477957        7.12954539676541       -0.35763239693521
N           81.21350696338338        7.59368850796886       -1.53710399278012
C           81.61976819040582        6.71894819965068       -2.45152398575647
C           81.64761017542897        5.35117016560181       -2.22859070001042
C           80.01836456084787        2.76341793082178       -0.50827222725317
C           78.74937729299619        3.42201727664213       -0.60466888150822
C           77.80183374084818        2.47315258426073       -0.41630823664348
N           79.84343433305573        1.42185937393705       -0.26257800539840
C           78.49375909248496        1.23916548743564       -0.21046201565358
C           77.83398773829411        0.02123514513382       -0.00819622992349
C           78.50759481500853       -1.18861803780837        0.19753290193722
C           77.82967864667675       -2.43392779952720        0.38014419872581
C           78.78720608018152       -3.37166924206200        0.57421929890200
C           80.04767969710470       -2.69250001503535        0.51829687973340
N           79.85879354209341       -1.35410871287794        0.26566301995336
C           81.27056938471750       -3.32236885650955        0.69523546567661
C           81.28233036380502       -4.77259914141176        0.99855791017504
C           81.85698717887773       -5.68939370950374        0.11926437909523
C           81.84183713338467       -7.03674694251176        0.44376184633152
N           81.30647472632793       -7.50527753994700        1.56643485790112
C           80.75908613242495       -6.63736700533083        2.41111322375102
C           80.71992161421376       -5.27260243547833        2.17208390110182
C           82.48745705215271       -2.65704488545482        0.59590521516445
C           83.75956320411223       -3.28428116014930        0.81089674351094
C           84.70324694497435       -2.33844945283582        0.59480678630715
C           84.00645854384292       -1.13340334316669        0.25954904608547
N           82.65126344647480       -1.33520951526740        0.28155489918631
H           85.72628773807548        0.05418479999423       -0.06215205889074
H           85.74702837878309        2.55346940137025       -0.71188888825375
H           83.84943513305180        4.43914145714440       -1.06201663669960
H           80.47330160082079        5.44664749818905        0.93532877410921
H           80.48973823054743        7.86903063636576        0.36880510682116
H           81.93769032598613        7.12891918202244       -3.40567334585035
H           81.97773829390674        4.67371829263691       -3.00698645869227
H           78.61220287417888        4.47220449115614       -0.80400677203304
H           76.72929613343157        2.58191361355259       -0.42003519127281
H           76.75920694515032       -2.55903516646265        0.35547702783586
H           78.66215222837747       -4.43022783322749        0.73307904486864
H           82.29595260365409       -5.35325387423772       -0.81250364419315
H           82.27937359248716       -7.77058368984455       -0.22675578475275
H           80.33153640767860       -7.05069010170688        3.31991124271328
H           80.27169647887925       -4.60071067951382        2.89424002567497
H           83.89869154786702       -4.31408924445814        1.09706923024799
H           85.77619485955336       -2.42746489610976        0.65638630177695
C           41.90636337515484        0.03669451800562       -0.03220824901709
C           40.67644911294000        0.03029063714793       -0.02347212350949
C           39.33483721425642        0.02206976759104       -0.01822786165428
C           38.10959739042640        0.01705247175668       -0.01365961969018
C           43.24775633237538        0.04012922271125       -0.03477530581904
C           44.47330645061761        0.03872410413407       -0.03761042248876
C           57.89650464435829        0.03327808062609       -0.00604995358887
C           56.66561638420828        0.03175660747895       -0.01044855065040
C           55.32628812151967        0.02856602726704       -0.01825524380524
C           54.10000858600511        0.02395847058752       -0.02457587020541
C           59.23580795345579        0.03261338338490       -0.00333706813108
C           60.46213156683293        0.02928732464148       -0.00143132793079
C           73.86686019110796       -0.00211519533090       -0.01385353684451
C           72.63642399655191       -0.00450375568294       -0.01181192352485
C           71.29592202306775       -0.00755242400639       -0.01274808545711
C           70.06993398276612       -0.01151466591266       -0.01227637844840
C           75.20761963855480        0.00815160148848       -0.00996396967356
C           76.43330840712431        0.01239567849301       -0.01073186759128
Fe          49.28801917976454        0.01818852406204       -0.04640659366154
C           45.87367129152856        0.03311330500813       -0.04103236600527
C           46.54177274367195       -0.74532257367035        0.91253470080916
C           45.86602376054433       -1.50522440806054        1.91630543239146
C           46.81879047351419       -2.20516504360155        2.57900427927104
C           48.07129363842618       -1.87480348261752        1.96857724185489
N           47.88869952901236       -0.94636187080352        0.97365015199619
C           49.28145192076494       -2.46622551040683        2.31077823170084
C           49.27749705766005       -3.54228526249455        3.32807544937554
C           48.58027469264973       -4.73164751733935        3.12000042662195
C           48.61019170506635       -5.71165094387404        4.09964171565977
N           49.27160170456274       -5.57172122587541        5.24387907459719
C           49.93558983537911       -4.43935093557573        5.45152549221835
C           49.97129145305639       -3.40496214390713        4.52966452424273
C           50.49417482758381       -2.09480754345176        1.74583575034159
C           51.74607362035044       -2.71919274395637        2.05300757289221
C           52.70276831723480       -2.01518561411056        1.40068347860986
N           50.68232718225064       -1.04986348850029        0.87369940126974
C           52.02973519650396       -0.97398794730173        0.68991314972522
C           52.70184633969605        0.02045136115108       -0.03329076929531
C           52.03403302220381        1.00900903328570       -0.76828393595318
C           52.71135207838050        2.04295828647232       -1.48566957088774
C           51.75941192311354        2.73512956505227       -2.15729411320795
C           50.50582864005836        2.11361566079700       -1.85139596397372
N           50.68815901094121        1.07936077457789       -0.96566228571640
C           49.29592723915702        2.48324166863946       -2.42338192357468
C           49.30017836306784        3.54806983552517       -3.45277787340303
C           49.98437337770097        3.38707380573339       -4.65682340734153
C           49.95772161793852        4.41150818625601       -5.59007939432942
N           49.31214468386965        5.55592940952916       -5.39071818402607
C           48.66065063065349        5.71857105450490       -4.24380696743285
C           48.62225967712430        4.74987672674023       -3.25324996014000
C           48.08181444739551        1.90530112098022       -2.07314143752779
C           46.82995622923868        2.24511036944732       -2.67970695388202
C           45.87263884776905        1.56290692062534       -2.00518367264379
C           46.54511621551266        0.80245318819557       -0.99958816614685
N           47.89386864586316        0.98732850008324       -1.06934765852788
H           44.80067028322568       -1.49517718639623        2.08065819412919
H           46.69448889864586       -2.88153652886652        3.40874711866678
H           48.03610185460096       -4.89305304979346        2.19715577578763
H           48.07934554421972       -6.64858620247885        3.95895824663792
H           50.46404164917243       -4.35448213695931        6.39651161806841
H           50.51748828336358       -2.49456371092133        4.74576612225590
H           51.86744015323500       -3.58466860989676        2.68359515856650
H           53.76888909718562       -2.17473424349181        1.39181148183576
H           53.77704002375425        2.20478271216748       -1.46937108922905
H           51.88458174595059        3.59142504455999       -2.79959218768466
H           50.51634436062785        2.46660646958767       -4.86559243404333
H           50.47804424863507        4.30808501838025       -6.53772445503659
H           48.14569472148234        6.66528691189568       -4.10975039672452
H           48.08670150729565        4.92944758598025       -2.32872898310007
H           46.70930662577378        2.91635554167693       -3.51415390560859
H           44.80623726765702        1.56451673043959       -2.16296043279936
Fe          65.26520806598343       -0.00083633664044       -0.01846837397397
C           61.85986680382605        0.02225057539903       -0.00481954783883
C           62.53093801244884       -0.72600386111911        0.97238492740376
C           61.86492836282528       -1.44779197090257        2.01037905258182
C           62.81791766391414       -2.16163073691807        2.65867925406733
C           64.06031463524843       -1.87999395624117        2.00405545753181
N           63.87309335695014       -0.95536506207914        1.00557151290509
C           65.25824799736944       -2.52618169687647        2.28323980324629
C           65.25711170838274       -3.61510471818838        3.28529743761972
C           64.47181904220392       -4.75510474785803        3.11733893242091
C           64.50487276588262       -5.74627631997581        4.08557454188249
N           65.25058918155563       -5.66262299833252        5.18248799442289
C           66.00026686217569       -4.57824908854753        5.35141568608204
C           66.03986025650076       -3.53771157702283        4.43685126481782
C           66.45847500356216       -2.19225973966373        1.66589401757908
C           67.69724079529169       -2.87616281614198        1.88550470395964
C           68.65449882224783       -2.16659511092129        1.23824852939456
N           66.65116273850165       -1.11151096894741        0.84134346060044
C           67.99478176197124       -1.06098217792725        0.61885851060443
C           68.67100276085748       -0.00999533520345       -0.01589319487399
C           68.00167297911767        1.04113737364036       -0.65757323862680
C           68.66929518067214        2.13471944265062       -1.28994894915694
C           67.71777158448448        2.84093238129376       -1.94911000450401
C           66.47402127420969        2.16935696545469       -1.72026332269239
N           66.65853514019867        1.09777855886713       -0.88225307594942
C           65.27494545290524        2.50949826991080       -2.33628150869121
C           65.28266554876973        3.58619506537116       -3.35166521441143
C           66.05087823155760        3.47897876567765       -4.51049767766197
C           66.02021595231676        4.50795039600070       -5.43837602517039
N           65.29351398605752        5.60869664179353       -5.27505289824660
C           64.56245395484234        5.72098783489012       -4.17088767131815
C           64.52120445290757        4.74296825218937       -3.18963332051180
C           64.07050076302249        1.88264444628528       -2.04247488446643
C           62.82698252691500        2.17734959573142       -2.68909779440935
C           61.86903655082269        1.48324357673552       -2.02684404864522
C           62.53317521323183        0.75934845277168       -0.98910341726635
N           63.87798569076068        0.96944802075325       -1.03438977401432
H           60.80526228699054       -1.40651620808004        2.20435955313490
H           62.69920935843305       -2.81918166893431        3.50428818661948
H           63.85708864969593       -4.87140397806862        2.23278325669931
H           63.90586895103147       -6.64540245625252        3.97507588553293
H           66.59604254106195       -4.53827042810863        6.25854272798156
H           66.65680098270668       -2.66650686033193        4.62188533348232
H           67.81042800355837       -3.78152199732756        2.45916011024297
H           69.71347555249008       -2.36020671794304        1.18080579840708
H           69.72951599429166        2.32186891551151       -1.23456224852295
H           67.83784969272642        3.73644786815101       -2.53663811220416
H           66.64962693759014        2.59409044356761       -4.69028013379563
H           66.60474487213874        4.44492285974137       -6.35148659817731
H           63.98211366082830        6.63287692916597       -4.06547558442814
H           63.91862443008353        4.88208982397465       -2.30003733182033
H           62.71107365706287        2.82996739515735       -3.53891119232948
H           60.80734414689295        1.45581464331343       -2.21198023344997
