384
 energy: -707.339419946915 gnorm: 0.000696760314 xtb: 6.5.1 (b24c23e)
C           83.37223059351469       -0.00107667673155       -0.52755566137192
C           83.99467769285329        1.20661770024770       -0.81470160245913
C           83.35753940298420        2.43512348112811       -1.14710489594590
C           84.32971846997383        3.37722279999685       -1.33185921120633
C           85.59329303744073        2.75155766243206       -1.12920334432192
N           85.33982016441479        1.44683461276857       -0.81448093781557
C           86.86208822567143        3.33546480328482       -1.20966193679309
C           86.91431733822355        4.76865575481622       -1.58984613531617
C           87.47441881392415        5.70575626352757       -0.72575448493155
C           87.52297073409358        7.05365762314396       -1.07849776733592
C           88.13025154142215        8.00428373167530       -0.11324327181156
O           88.11306988469781        9.27790695402461       -0.53271514708657
O           88.60024144791198        7.68749411492173        0.94956782618133
C           87.01129013808375        7.47389247154409       -2.30624919332397
C           86.45559118554795        6.54282580091224       -3.16950736711757
C           86.40470014409198        5.20163028514564       -2.81632125830336
C           88.06915011942634        2.67637661596777       -0.96315589287523
C           89.37353960338363        3.28655765429011       -1.14774672700968
C           90.28375328104202        2.34291730819049       -0.83143545378380
N           88.21028540895436        1.38529539868259       -0.55587345664464
C           89.53646921047422        1.15894574116683       -0.45429369309800
C           90.15966065948574       -0.04140519529224       -0.05870951727642
C           89.50792128735128       -1.24473903930809        0.26916540461328
C           90.13053168995511       -2.45715806158298        0.66724560878230
C           89.15158694672709       -3.38903206040869        0.87213580148140
C           87.89685414266515       -2.76949398771381        0.61668997943932
N           88.16407559418663       -1.47572512461533        0.25494266143915
C           86.63101274473073       -3.36199457162668        0.67780622816086
C           86.58202067875315       -4.78532449705485        1.09486135736437
C           86.07688412164947       -5.75909871128964        0.23025631638147
C           86.03270246578400       -7.09199467956292        0.61481818157888
C           86.48951681378368       -7.46949031430816        1.86648724768761
C           86.99523760472520       -6.50565700897257        2.74009575197386
C           87.47410521751220       -6.94968838912653        4.07340586190629
O           87.95265035050255       -5.95263864233422        4.83190723026125
O           87.44786007560488       -8.09043677724242        4.45867122750131
C           87.04161604273141       -5.16780541920042        2.35335976468643
C           85.42596520368302       -2.71747384449118        0.38163963656992
C           84.11511783957755       -3.33658293344994        0.50579512628199
C           83.21372122584199       -2.39425605431608        0.16425100053563
C           83.97177715780884       -1.19804565870740       -0.15845347371294
N           85.29978871971373       -1.42948483186779       -0.01677013519413
H           82.28848388850808        0.00459222902675       -0.58531408749511
H           82.29031298623353        2.56917072140457       -1.22349703287680
H           84.18907529176225        4.41773741504979       -1.57588444978050
H           86.05498250161632        0.76038593468455       -0.59876937671295
H           87.86577504681173        5.39880132276984        0.23800971725399
H           88.52434808968265        9.83313460358842        0.14939188313363
H           87.05172303356123        8.52119678971724       -2.57994476740965
H           86.06041520270759        6.86162638857625       -4.12738483765745
H           85.98257707465858        4.47730372258350       -3.50400811656777
H           89.54870528902548        4.29233856902599       -1.49347405852112
H           91.35886071234546        2.41412880058717       -0.85886352457891
H           91.19348964002815       -2.59242384090905        0.78068909635343
H           89.28510780287129       -4.41733656525561        1.16569022384461
H           87.45504291884318       -0.79278222287716        0.00890157236299
H           85.73164179611983       -5.46768027756674       -0.75538195834692
H           85.64178336766673       -7.83703779026187       -0.06874077181448
H           86.46239723425325       -8.50607662633421        2.18286842109529
H           88.24145465798755       -6.32356383488029        5.68168284952567
H           87.42028163041674       -4.41981336328529        3.03989146593479
H           83.93331564283542       -4.34935775344021        0.82767606876207
H           82.13790972154806       -2.46775248085063        0.13422085216721
C          144.66942526581965        0.10154811047796       -0.17004353002892
C          144.10123660879006       -1.14862208550485        0.03701015313092
C          144.79219431224553       -2.37050977123262        0.27149400611434
C          143.86067491730040       -3.35885155527348        0.42143876852982
C          142.57039967049732       -2.77345015586946        0.27541391359315
N          142.76639111532853       -1.44069927841102        0.05078913071601
C          141.32731361803928       -3.40791025008058        0.37449693113677
C          141.34954601469050       -4.87305426230088        0.61387741099909
C          140.80236538297081       -5.41004527862479        1.77560409724430
C          140.82777437811805       -6.78625318608735        1.99844631907679
C          140.23270911446460       -7.29860348797828        3.25846852359793
O          140.31605421094136       -8.63077612351391        3.38700822708198
O          139.71911924368459       -6.60604690869932        4.09936938923989
C          141.40072142211088       -7.63742477518203        1.05353210316884
C          141.94531662725765       -7.10514156867530       -0.10444805232456
C          141.92340507444368       -5.73489826754883       -0.32368182163242
C          140.08735919035223       -2.77411338156944        0.27028679261963
C          138.81469037520193       -3.46754502396546        0.35607577110535
C          137.85827163871289       -2.52748755339081        0.21293583304642
N          139.88181412441827       -1.44477655877348        0.05817480995458
C          138.54561639664814       -1.26492998393591        0.02332647896127
C          137.86352353344742       -0.04544560301331       -0.16152441357141
C          138.45856012364786        1.21232143218657       -0.37563173104094
C          137.77666534561891        2.44150812019837       -0.57741906029158
C          138.71299219873578        3.42258640275208       -0.74801200248055
C          139.99878170204889        2.81942109186949       -0.66828265181716
N          139.79298852156091        1.48442546719539       -0.43991955474540
C          141.24030094598470        3.45566612157302       -0.76812477089260
C          141.22050560584523        4.91908889119971       -1.01508357522532
C          140.65379036911474        5.43569646085085       -2.18230235066818
C          140.63417092808805        6.80437779937841       -2.41292362496677
C          141.17641423511677        7.67369080334167       -1.48110648001685
C          141.74499866994140        7.16957334517785       -0.31028355336158
C          142.31350162420867        8.13356660922486        0.66477711416909
O          142.83938142424594        7.55030193175230        1.75160625725159
O          142.31545506092786        9.32892730052305        0.51697123854211
C          141.76750509214912        5.79559873260434       -0.08018078529153
C          142.48136319716440        2.82247162389175       -0.64946683730099
C          143.76179885452055        3.49721589269778       -0.79799449690492
C          144.71152328569985        2.55596287174369       -0.62699335804253
C          144.01258327964143        1.30578519626819       -0.38580395027420
N          142.67171925734505        1.50322814490890       -0.41167867545795
H          145.75430289058232        0.13095344019786       -0.16349448848102
H          145.86504527412370       -2.46602674432308        0.32282124939296
H          144.04465913946140       -4.40123742159328        0.62544698080699
H          142.02015051160490       -0.76534644191299       -0.07648053608974
H          140.36386636021365       -4.76242767925709        2.52690088626337
H          139.90809705458824       -8.88543801644790        4.23053122203355
H          141.41719494285886       -8.70650265430635        1.22721724293712
H          142.38940059408645       -7.76097025183456       -0.84476111215242
H          142.34021463950634       -5.32666128927315       -1.23770074837146
H          138.69052151712242       -4.52868701936098        0.49850295556817
H          136.78795265665465       -2.65327489776200        0.22840513470945
H          136.70527838671350        2.55399176366774       -0.59205208359372
H          138.53141863728169        4.47284424144758       -0.90741786261582
H          140.53585053898999        0.80302323663831       -0.32405368277768
H          140.24054195123009        4.75644279936805       -2.91964949571478
H          140.19443251206056        7.19031822673515       -3.32559578054844
H          141.16830859575850        8.74535384966319       -1.64475028683604
H          143.18763036424028        8.24361217601167        2.33529629717105
H          142.19694599569885        5.40752059126389        0.83575952398317
H          143.89108148449102        4.54530750059687       -1.01511108593909
H          145.78418322985777        2.66406950788132       -0.66341801767183
C           91.56824916558810       -0.05233393661329        0.00610283543538
C           92.78443672703216       -0.05774771590887        0.05587475035747
C          102.48952174974434        0.01496874509211        0.12585532204930
C          103.70789008156444        0.01926553672879        0.12253405788905
C          113.40873971513271        0.03002707252564        0.06682751741835
C          114.62722438941169        0.02650362870186        0.06323327943825
C          124.32587717444238        0.00584975992906        0.09496894622178
C          125.54418582889527       -0.00517535962433        0.09546236906655
C          135.23796681005501       -0.07409243730475       -0.08512914675766
C          136.45469584463933       -0.06870482629755       -0.12721996011975
C           94.19303501544678       -0.05161203433820        0.09517722307596
C           94.81066530148293        1.19143887709569        0.32941809395292
C           94.15873813261381        2.43444586509659        0.53626147196075
C           95.11854050921727        3.38165881438019        0.76556619981027
C           96.38644340710825        2.74044496481708        0.71964533301536
N           96.15034420650647        1.42111214624533        0.44069658569870
C           97.64060996677287        3.32866480799325        0.92373349278547
C           97.64450839697466        4.77565031725477        1.25533699699837
C           98.28859040082473        5.68457970005526        0.42026398038903
C           98.29051120503530        7.04544368218497        0.72304653098120
C           98.99310614911343        7.96391676994197       -0.20799260988579
O           98.92968424063405        9.25192707422404        0.15992371130621
O           99.57297776203082        7.61122489669326       -1.20288383049423
C           97.64670693670878        7.50698949754656        1.87114610439918
C           97.00845152029159        6.60373112325651        2.70649101672525
C           97.00473097949771        5.24943240795672        2.40315468899523
C           98.87190322080259        2.67724018464298        0.83889972438746
C          100.14121767505627        3.31000885997109        1.14931892288954
C          101.09369229789500        2.37971438319825        0.93275310229062
N           99.07335910974041        1.38239208098916        0.46864145463774
C          100.40675385284871        1.18194475404633        0.49371135601165
C          101.08261807098987       -0.00058220677578        0.12923046706734
C          100.46193395853962       -1.21208194501771       -0.23393090639890
C          101.10822261237269       -2.40152213651558       -0.65663321480280
C          100.14797994369771       -3.35326514464651       -0.86502584107269
C           98.88465733591278       -2.77072291498131       -0.57408465752719
N           99.12360627343901       -1.47186850600284       -0.21340117876483
C           97.63204739207154       -3.39167113773684       -0.65134875398556
C           97.63895787532783       -4.83731678907496       -0.98930467229694
C           97.00813413221115       -5.30108181542277       -2.14586793916561
C           97.01743165469432       -6.65244546443046       -2.46249029073459
C           97.65394253725641       -7.55715658010121       -1.62929644437569
C           98.28826554777820       -7.10606068881890       -0.47081206799410
C           98.96044663084598       -8.10634446811633        0.39645167722174
O           99.54853324564387       -7.57166575279477        1.47653229186141
O           98.99058519046841       -9.28890158268752        0.17103319165421
C           98.28113408032436       -5.74923747377697       -0.15413435143912
C           96.39919737101422       -2.77107675637183       -0.44544640009244
C           95.12564711526734       -3.46617209209808       -0.49824317245926
C           94.17309057201260       -2.53199191957011       -0.29894468984179
C           94.86491856984830       -1.27327358636883       -0.10707591759470
N           96.20004479634808       -1.44967106264147       -0.18582970714884
H           93.09134543152862        2.58000313055512        0.51482243012687
H           94.96243233410704        4.43283074380606        0.94453809109107
H           96.87247453603162        0.71726073430720        0.32911688200179
H           98.78328961534864        5.34487073638062       -0.48309744533647
H           99.40842366781196        9.78361298804538       -0.49653904175868
H           97.64939341797414        8.56460768529072        2.10527655583049
H           96.51033268495695        6.95478670548460        3.60311600607398
H           96.51590026927484        4.54753335345096        3.06957755567214
H          100.26457173420275        4.32138797810392        1.50103111936618
H          102.15947324899621        2.46781372056142        1.06609009668396
H          102.17123502033493       -2.50703208769420       -0.79484205985094
H          100.29914182354305       -4.36541901382057       -1.20284556620043
H           98.40456547578499       -0.79860819196866        0.02902144718652
H           96.52127728959526       -4.59269796999866       -2.80667852718080
H           96.52671521907236       -6.99724918340550       -3.36550805284699
H           97.67019006195490       -8.61602244644667       -1.86150940929455
H           99.96046279556204       -8.28648408200443        1.98878708763563
H           98.76256257292786       -5.40347054123793        0.75303837154667
H           94.99827561461318       -4.52482296804225       -0.65608311252361
H           93.10313018896161       -2.66015003947181       -0.27655282340178
C          105.11449279563344        0.02601825398062        0.12030945726554
C          105.74666913648909        1.28282217642263        0.19619902155923
C          105.11616657670221        2.55278347825329        0.20740279634084
C          106.08642572862746        3.50480047592581        0.36571499769125
C          107.33933435250853        2.84086762691653        0.46060240774764
N          107.08597438860748        1.50225456215269        0.32714965796039
C          108.59488349084211        3.42327592208264        0.67727577705181
C          108.61127515693012        4.88619024856344        0.92063626874048
C          109.34813428789427        5.73154535748230        0.09507337937818
C          109.36485341627910        7.10657565902358        0.32407372565200
C          110.17010212398851        7.95445988490896       -0.59093034492260
O          110.10755612888369        9.26274441344735       -0.30301745058175
O          110.82650751607402        7.53233285618686       -1.50811581105596
C          108.64216617886966        7.64747862399614        1.38743583763486
C          107.90952016459990        6.80846590247309        2.21230805953404
C          107.89142355666046        5.44010211464499        1.98251704193403
C          109.81543132650158        2.74586107063780        0.68305951079039
C          111.08471851822016        3.36684232319194        1.01590371471415
C          112.02849732747632        2.41699589033418        0.85036655293896
N          110.00628944872666        1.43658803624762        0.36114003910403
C          111.33592737399407        1.21931518931802        0.42099448414298
C          112.00242230886293        0.02562629967589        0.07514418988819
C          111.36837541714063       -1.18595164679599       -0.26519411281605
C          111.99627595167287       -2.38569114148124       -0.68544365747355
C          111.02599118158345       -3.33780489439634       -0.84279087495083
C          109.77582558319781       -2.74558575304389       -0.51786854757927
N          110.03032206348868       -1.43870366482810       -0.19997348814853
C          108.52183645498481       -3.36919229731928       -0.49426137452059
C          108.50577480777407       -4.82913254003994       -0.75619026261574
C          107.76479138726154       -5.34964566233286       -1.82006927651311
C          107.74891949098466       -6.71467581795530       -2.06983955218299
C          108.46915398553882       -7.57760702492576       -1.26072693553400
C          109.21219423186155       -7.07029052299171       -0.19369791165233
C          109.97068527166770       -8.02655184533688        0.65146820910425
O          110.65726477909885       -7.43914323815909        1.64262755506186
O          109.98608948851458       -9.21860987931655        0.48180610997066
C          109.23039356537477       -5.69965458219928        0.05558997674563
C          107.30373133508574       -2.73548280201185       -0.24426293656565
C          106.03895260006695       -3.43583784176057       -0.11557680131986
C          105.09507852637186       -2.48777484639943        0.06086457331207
C          105.78316155356191       -1.21325372178915        0.04108973108309
N          107.11083570420061       -1.39424331049987       -0.11036909541574
H          104.05683072767546        2.71390561939375        0.09609024944386
H          105.94774938282636        4.57300990453346        0.39994554795733
H          107.79654931148559        0.77830166370379        0.32283246268116
H          109.90457779070461        5.33064298014788       -0.74503908295266
H          110.65476392719182        9.74538501206071       -0.94377965983986
H          108.65768717187201        8.71595900758518        1.56493601393308
H          107.34920501397384        7.22119420225847        3.04360358344634
H          107.32880243249052        4.78885393863043        2.64221323619458
H          111.21386626846900        4.38422150493942        1.34775904520891
H          113.09116000507876        2.49239571973457        1.01286601132455
H          113.05388270584312       -2.49854284133275       -0.85617905815600
H          111.16258880814290       -4.35668898605851       -1.16625662849666
H          109.32218490663602       -0.75629842502522        0.04868689086487
H          107.21114496824607       -4.67433112857177       -2.46269960999586
H          107.17261466607786       -7.10320227767223       -2.90171885233678
H          108.46724089013726       -8.64655676268330       -1.44147429818580
H          111.12153548031097       -8.12776338518105        2.14580638463277
H          109.79514905465999       -5.31074108354549        0.89467564767360
H          105.91365695282308       -4.50630091825089       -0.13698326331850
H          104.03579327040791       -2.61665043461411        0.21087257929424
C          116.03354754481296        0.02711658572411        0.06612902777450
C          116.66905309429585        1.28204124947331        0.14851557919953
C          116.04171571579280        2.55359066796635        0.15482273693488
C          117.01261733224712        3.50286070302850        0.32477954672849
C          118.26272991025013        2.83555944908547        0.43207951431846
N          118.00740619697814        1.49773227182151        0.29361559874280
C          119.51724623110948        3.41464254819956        0.66287102259117
C          119.53333485298712        4.87685698848730        0.91009866379010
C          120.27986600993511        5.72353199616997        0.09469588521850
C          120.29441981622156        7.09812159240817        0.32653279906209
C          121.10992324961705        7.94733441528240       -0.57807027488745
O          121.04225606506314        9.25542429745605       -0.29057483957556
O          121.77804830220026        7.52627251502965       -1.48723613336724
C          119.55981337035686        7.63729762785875        1.38257649558101
C          118.81776303000944        6.79691762740971        2.19760498132712
C          118.80187230189870        5.42902021091666        1.96499251614427
C          120.73614456939596        2.73428323493453        0.67845633054828
C          122.00471620399804        3.35180952023028        1.02029654592632
C          122.94709554116747        2.39935932058963        0.86165841918203
N          120.92553459998646        1.42437066552803        0.35870010891019
C          122.25408553582382        1.20307503514137        0.42896886332703
C          122.91935267497854        0.00608296210848        0.09305689272492
C          122.28553764612363       -1.20486759585178       -0.24949235175652
C          122.91534538505167       -2.40693100299101       -0.66021542692655
C          121.94440272287176       -3.35668927459689       -0.82767236800809
C          120.69199799817706       -2.76070389181319       -0.51864709072596
N          120.94615488628646       -1.45418041717694       -0.19918108011677
C          119.43559925638566       -3.38036708247937       -0.51154503432889
C          119.41897913979743       -4.83993540626726       -0.77523771130302
C          118.68925012156900       -5.35716503023164       -1.84850146887739
C          118.67501385065573       -6.72149968905617       -2.10210695655632
C          119.38564089763346       -7.58718164071928       -1.28750273606729
C          120.11673107139197       -7.08338548059173       -0.21058376738289
C          120.86420164061474       -8.04287834149052        0.64077645822835
O          121.54205546519495       -7.45896365959443        1.63992106002997
O          120.87831762466283       -9.23473746236840        0.46936594791688
C          120.13325997553716       -5.71342161776436        0.04258203723450
C          118.21644976946963       -2.74239767063111       -0.27829314387375
C          116.94705911450852       -3.43773255720792       -0.16849778697239
C          116.00472287693324       -2.48620894795940       -0.00280405775717
C          116.69835801932267       -1.21449828326041       -0.00992659272338
N          118.02697518974163       -1.40048557693108       -0.14461298709702
H          114.98419078910160        2.71777734246384        0.03165125437880
H          116.87621791030345        4.57135347376675        0.35875281130124
H          118.71629119280679        0.77212593009575        0.29548231747270
H          120.84532175310184        5.32413596781843       -0.74008906744283
H          121.59671360959767        9.73884007681650       -0.92450983414663
H          119.57340830776027        8.70546853635002        1.56210512484577
H          118.24802565680784        7.20823170399793        3.02318764762951
H          118.23145486689208        4.77677530262404        2.61696955134995
H          122.13434568280549        4.36899488969336        1.35250014945342
H          124.00898914256553        2.47210909272868        1.03072656484504
H          123.97468057578325       -2.52270132145271       -0.81820428464504
H          122.08234229211115       -4.37630164866616       -1.14825456095424
H          120.23648115668472       -0.76975668007084        0.03934765171873
H          118.14347917804709       -4.67973402027802       -2.49558996386622
H          118.10778622715131       -7.10727351934827       -2.94145783184985
H          119.38542311966616       -8.65557836524234       -1.47150087611896
H          121.99891309013501       -8.14972644249125        2.14701882430255
H          120.68882229954242       -5.32741730614171        0.88912990047177
H          116.81756572347003       -4.50759276939856       -0.19416102020314
H          114.94264867448868       -2.61078845162648        0.13060631824834
C          126.95075394091475       -0.01374588059515        0.09175266068833
C          127.59361175981606        1.23900064164071        0.13533486462771
C          126.97139567110669        2.51339906055825        0.13018086827627
C          127.94950160870017        3.46156810818115        0.25852047235448
C          129.19953728289940        2.79121301445408        0.34801055083500
N          128.93575928062529        1.45176772808497        0.24527711604622
C          130.46220080938724        3.37078074828436        0.52492580074949
C          130.49036682952280        4.83824292754479        0.73867623824044
C          131.20706147751250        5.66596802502195       -0.12163333831187
C          131.23562675686185        7.04466068964630        0.08328889398654
C          132.02118812560894        7.87309579418314       -0.86602219783031
O          131.97146109560566        9.18609276573385       -0.59878354406477
O          132.65276223216841        7.43226241428687       -1.79196459316960
C          130.54431791000181        7.60687476708143        1.15642236915034
C          129.83087232382488        6.78544836865689        2.01515325975572
C          129.80159241573199        5.41342333281352        1.80985777133635
C          131.67911029485751        2.68644194124555        0.51599806794550
C          132.96141347104057        3.30977410219510        0.79003442064837
C          133.89458832520774        2.34914487431037        0.62755944667879
N          131.85224508269027        1.36625123560385        0.23300846801221
C          133.18203735790763        1.14109240652723        0.26366451364376
C          133.83052425913920       -0.07333811505596       -0.03747919063765
C          133.18567904729514       -1.29883550578931       -0.29124848309321
C          133.80344714032256       -2.52603774922638       -0.64313550436946
C          132.82597776217250       -3.47869514753159       -0.73829817860235
C          131.58121243029851       -2.85946540716005       -0.44258373375264
N          131.84640352913158       -1.53868898411277       -0.20115575015270
C          130.32141818554121       -3.46962735939261       -0.38628145681011
C          130.29264292161707       -4.94053619361451       -0.57575451423178
C          129.54531951471037       -5.50733847117275       -1.61121094269531
C          129.51956844789817       -6.88280354296268       -1.79420545669112
C          130.23733166895116       -7.71026266670674       -0.94675197652944
C          130.98704533844844       -7.15664327398208        0.09220696198287
C          131.74452166818691       -8.07513129046912        0.97937678903619
O          132.43801153123871       -7.44396973283819        1.93765687512017
O          131.75364833297650       -9.27420738402371        0.86692806839512
C          131.01386138311327       -5.77573729683611        0.27532088024159
C          129.10940132214532       -2.81215301854733       -0.16959809034764
C          127.83597083162967       -3.49201635335584       -0.01637179187454
C          126.90233402829631       -2.52688025175180        0.11639200447915
C          127.60575091649164       -1.26211894673748        0.04948944902401
N          128.93127991203355       -1.46427592557106       -0.09208503972983
H          125.91163938392133        2.67931455031955        0.03023427603293
H          127.81831589623435        4.53114409465311        0.27505590751378
H          129.64200809164393        0.72359006634578        0.24820169791513
H          131.73848898264202        5.24834594964689       -0.96977827089178
H          132.50743124913919        9.65558386299443       -1.25842421804557
H          130.56918235010309        8.67812674697090        1.31519056393095
H          129.29495987827215        7.21482021034052        2.85409175343389
H          129.25478828568532        4.77590440069670        2.49578158473367
H          133.10623714644507        4.33679521306300        1.08334598658088
H          134.96205764189492        2.42308084258545        0.75670625123714
H          134.85993951997824       -2.65613574669586       -0.81004837677538
H          132.95418969869800       -4.51580337170339       -1.00165905491928
H          131.14359728271512       -0.83891632257629        0.01189845571970
H          128.99468242505444       -4.86053538548803       -2.28500009619018
H          128.93794449192802       -7.30735774216899       -2.60452437622472
H          130.22862731251647       -8.78663120265341       -1.07602294815770
H          132.90287985772039       -8.10830310938435        2.47195087553085
H          131.58354593101785       -5.35060035549675        1.09321647554524
H          127.69808039125857       -4.56088148260202        0.00620571309872
H          125.84082202528802       -2.63710407293242        0.26665636109971
