262
 energy: -510.335178644951 gnorm: 0.000530422873 xtb: 6.5.1 (b24c23e)
Zn          40.71730342241661       -0.00058817813513       -0.05138844909857
C           37.30962849752801       -0.03617975915260       -0.13002456716265
C           37.94508787101484       -1.25680389841193       -0.32151802790423
C           37.27637017076690       -2.51315740865786       -0.51518183784365
C           38.23918455459606       -3.45669274186287       -0.66183867560611
C           39.50931884589502       -2.78493514018297       -0.57180443678042
N           39.29571561977113       -1.45586089787350       -0.35554354650840
C           40.76490372655898       -3.39988020121208       -0.65967875681169
C           40.78584029054660       -4.85966231849619       -0.91442967146037
C           41.36158238455327       -5.73049123155320        0.01624459939094
C           41.38063391290604       -7.09391727780937       -0.21324441236689
C           40.82391687816882       -7.59263975003703       -1.38783166358743
N           40.84339142988082       -9.02253512269007       -1.63532092607402
O           40.34984958315973       -9.41843107189692       -2.66051485251175
O           41.35189882930928       -9.72671286352016       -0.80057099609558
C           40.24881281731633       -6.74310180206233       -2.32898893342420
C           40.22988207169579       -5.38183194676395       -2.08661478835094
C           42.00199340826094       -2.75780905989245       -0.52843332657618
C           43.28508950058183       -3.38657036501298       -0.68314411606051
C           44.22561634241920       -2.42534507781845       -0.50036012945901
N           42.18721711698589       -1.42669465175250       -0.26961357929349
C           43.52797680453780       -1.20026678992460       -0.24092032576920
C           44.15244641036547        0.03869565936854        0.00786791062274
C           43.49198970537728        1.26148146324446        0.24255543560476
C           44.15211347781138        2.49955152635803        0.53592422476525
C           43.18400218805902        3.43726737318831        0.69576791734305
C           41.92169537383728        2.78169187363967        0.48935176086170
N           42.14615833539592        1.45729878533595        0.22690478977369
C           40.66621812934734        3.39535848099417        0.57498168147858
C           40.64217484813212        4.85191359005370        0.84671329653990
C           40.01748838470429        5.34556305892163        1.99659698922179
C           39.99170674359576        6.70348093364259        2.25614258638717
C           40.59176133027267        7.57866134862810        1.35488230050307
N           40.56446693833679        9.00518123992205        1.62028040899650
O           40.00757183024884        9.37607641026059        2.62211582360663
O           41.10003225966855        9.73184129898493        0.82253525063981
C           41.21701127092557        7.10864124288996        0.20316278050981
C           41.24146615189729        5.74833797443476       -0.04392196701755
C           39.42925703362840        2.75464253572163        0.42557574493276
C           38.14265477983788        3.39991306714411        0.45771120789677
C           37.20758967669064        2.43809693996324        0.25942109642790
C           37.91038610258298        1.19655619428280        0.09311792782904
N           39.25354264998211        1.42290200624737        0.19257976765682
H           36.22447189906833       -0.04707966075972       -0.15618951822915
H           36.20601093396076       -2.64563962829353       -0.52654021934976
H           38.10542509279477       -4.51679231792519       -0.80601579623456
H           41.78075363114734       -5.33116995805533        0.93247361575631
H           41.81829862685745       -7.77629773507434        0.50543330481152
H           39.82670438625463       -7.15560834113837       -3.23748122142216
H           39.79659301394170       -4.70925368827140       -2.81772374899843
H           43.44503034232172       -4.42675948760485       -0.91675189242600
H           45.29811599646097       -2.52809600204447       -0.54289829103980
H           45.21993129862565        2.62561391284769        0.61688181599797
H           43.31213446409907        4.47818235777595        0.94521565096478
H           39.56512623919833        4.65338311421472        2.69723820045725
H           39.51560636312550        7.09385053123476        3.14756835626771
H           41.67276903517320        7.81058040935131       -0.48477775778277
H           41.71339763828116        5.37151106630795       -0.94386640680331
H           37.98025282908991        4.45625401548610        0.60000809598588
H           36.13546553982244        2.54892070320642        0.21922174408202
Zn          96.57459874891802        0.03760918159254       -0.01955026859544
C           99.98110438586021        0.10236911610255       -0.12319046557340
C           99.34840696393806        1.30571101456641        0.16324371643476
C          100.01982251129718        2.54426036768343        0.44306249269094
C           99.05910820867928        3.47428177738600        0.66862048369550
C           97.78745846581977        2.81655788844179        0.51730003136782
N           97.99827002571202        1.50237668770788        0.22187753822874
C           96.53342354304472        3.41986034237457        0.67800907914443
C           96.51564066352591        4.87072359070383        0.97953597824673
C           95.95340662298813        5.33784136758912        2.17185307714034
C           95.93737550926289        6.69007272798705        2.46031682554066
C           96.48349128797115        7.58615439347188        1.54537913487946
N           96.46708467604707        9.00678353483121        1.84161143669373
O           96.95262750179425        9.75211777992244        1.02919269999860
O           95.96952314238638        9.35435565207193        2.88225095151301
C           97.04517499142990        7.14267153317713        0.35119532832637
C           97.06118808555213        5.78774264232185        0.07549081256766
C           95.29538069643829        2.77410849879037        0.57753628502397
C           94.01302654639663        3.41451890435042        0.68258064191248
C           93.07096511608007        2.45307376857735        0.50910031710276
N           95.10800435388180        1.44151692468952        0.32795875922672
C           93.76681564072643        1.21948473396745        0.28799350232929
C           93.14048599366475       -0.02432682639239        0.06975953278503
C           93.79881019841977       -1.24624215692149       -0.17517161292290
C           93.13744619530409       -2.50507672748591       -0.35557871227157
C           94.10340520652669       -3.43293285855330       -0.57504871726760
C           95.36543683373965       -2.74595720946179       -0.54151183082135
N           95.14331876244901       -1.42015756705354       -0.28440020475067
C           96.61896746295041       -3.34521290626802       -0.71405043773812
C           96.63948081851103       -4.79556868082897       -1.01728137233148
C           97.27991601707753       -5.69016193892316       -0.15378734805194
C           97.30414495768528       -7.04404487161601       -0.43394207014580
C           96.68645019531462       -7.50923860183909       -1.59166611571656
N           96.71321463794469       -8.92850710863329       -1.89346413302093
O           97.28500066878870       -9.65320298867301       -1.11937884489853
O           96.16238927658561       -9.29572943701169       -2.89997242345586
C           96.04438639459781       -6.63588235866111       -2.46534879581914
C           96.02171895769128       -5.28463507129532       -2.17282292728545
C           97.85675017108554       -2.69433521123374       -0.62928698887560
C           99.14083996296276       -3.30293402727222       -0.86060082027827
C          100.07745678124783       -2.33662133298272       -0.69409898530604
C           99.37795662677985       -1.12446532731905       -0.37105165118804
N           98.03524301116838       -1.37277373993925       -0.34574758651968
H          101.06590083044932        0.12301119410882       -0.15721220996041
H          101.09049683788236        2.67198380096755        0.46931891051779
H           99.19531188504895        4.51209546216670        0.92724138071100
H           95.54250353612775        4.62934541733145        2.88166100325610
H           95.51014487870056        7.06005867098473        3.38458661612592
H           97.45921595087545        7.86059967221439       -0.34654658091088
H           97.48396442723585        5.43141705183197       -0.85666628505628
H           93.85435721922006        4.46722117881045        0.85223731092836
H           91.99845150418702        2.56343861033040        0.52141012241303
H           92.07043585181316       -2.65378447728682       -0.31011754872294
H           93.97433702474314       -4.49168210807666       -0.73175440854290
H           97.74621020883914       -5.31773931322821        0.75092215564971
H           97.79284891087700       -7.74467004194219        0.23238685443376
H           95.57472632899392       -7.02225968940386       -3.36191084101738
H           95.53691813511217       -4.59324323990857       -2.85221738831874
H           99.30062402942299       -4.33478624533071       -1.12932664925531
H          101.14848131150963       -2.42324550443712       -0.78764227826304
C           45.55739453849950        0.05429526456418        0.02118475773722
C           46.78212029620699        0.06194098052356        0.02371418730401
C           48.12449281714386        0.06575100005534        0.02374960218837
C           49.35530906643076        0.06388207245189        0.01897980352521
C           50.69281327739926        0.06050614632516        0.01159998151345
C           51.92365691610063        0.05388511345617        0.00143659115642
C           53.26576987421712        0.04862934654696       -0.00812239657348
C           54.49068133877853        0.04286738182065       -0.01712541445460
C           64.18060608911514        0.03523133670987        0.00364328676739
C           65.40566767063419        0.03399546775228        0.00109960978483
C           66.74763788758493        0.03315394128485       -0.00468003924294
C           67.97866705274531        0.03157755615400       -0.01290404228253
C           69.31589561515577        0.02961209351649       -0.02251497309296
C           70.54693840819616        0.02685305234367       -0.03127723014983
C           71.88889634491879        0.02311092853772       -0.03931008101412
C           73.11394247744556        0.02129723149797       -0.04550648282300
C           82.80286390107231       -0.00202398661231        0.06622130556539
C           84.02763390402909       -0.01423927212423        0.08503538734370
C           85.36964655169071       -0.02212796873925        0.10052492870240
C           86.60051649681934       -0.03221226226344        0.11067791556668
C           87.93797331821560       -0.04355791419644        0.11389496056295
C           89.16878980262464       -0.05097280052340        0.11406447942185
C           90.51110237828699       -0.05132510719584        0.10544521835104
C           91.73579598318076       -0.04457525996440        0.09444928404303
Zn          59.33572329641736        0.03807781939691       -0.01769448837346
C           55.89506670141002        0.04048131120721       -0.02227026613124
C           56.53824328051562       -1.21233748954335        0.04066018255557
C           55.85946223829941       -2.47086564573798        0.13321882194736
C           56.81437032678964       -3.43532226370503        0.16253546046877
C           58.08624592241838       -2.77285255869047        0.07952389419321
N           57.88193833283091       -1.42111624635561        0.01651790326027
C           59.33324464684181       -3.40877569706094        0.09452717913078
C           59.33123118385755       -4.89080626435441        0.13580684744495
C           59.90526606420550       -5.56950293940684        1.21520623364900
C           59.90334032631238       -6.95171601332389        1.25851010063206
C           59.32746665688613       -7.66316168278203        0.20959949193290
N           59.32565444867252       -9.11434065792863        0.24814298162465
O           58.81775946257571       -9.69639635209127       -0.67606268029800
O           59.83275989796910       -9.64779265963887        1.20166029477139
C           58.75317619433909       -7.00707124350565       -0.87564340197185
C           58.75495574436680       -5.62457025173477       -0.90580580178756
C           60.58119481041336       -2.77542934980727        0.07300028345940
C           61.85247873955846       -3.44336278401302        0.03736506359589
C           62.80870177854841       -2.48018870554965        0.01115515747041
N           60.78744699495515       -1.42247401042243        0.05138966472022
C           62.13138749217939       -1.21741659132747        0.01976427893592
C           62.77636770920905        0.03609186176325        0.00044300140738
C           62.13280016972190        1.29018488259819       -0.02663830494142
C           62.81118640174374        2.55231262626384       -0.01519142016323
C           61.85640280943635        3.51622703782397       -0.06092077234355
C           60.58504455415721        2.84931448604061       -0.11004911849885
N           60.78952026615603        1.49640893228245       -0.07608450173985
C           59.33837723298826        3.48428648943034       -0.15482961082954
C           59.33961937097857        4.96504410344310       -0.22421791165228
C           59.93449952252262        5.61950475359532       -1.30748859519867
C           59.93301088073409        7.00024822353433       -1.38276350575542
C           59.33580166985339        7.73516171966562       -0.36233231070695
N           59.33159441149637        9.18492937339658       -0.43596160491958
O           59.86117642252859        9.69673194299537       -1.38913702540601
O           58.79975961224849        9.78765845596896        0.46115616682551
C           58.74188615986395        7.10369232335404        0.72695465916575
C           58.74433554974148        5.72224203158792        0.78957809998729
C           58.09029649968627        2.85025249481227       -0.14314559938719
C           56.81952313499920        3.51289106385726       -0.24079661073470
C           55.86334334079353        2.55010125576474       -0.20138765414351
C           56.54030221040702        1.29200474913352       -0.09178678630732
N           57.88410215735998        1.49949912580260       -0.06530486960220
H           54.78906623466114       -2.59317749423527        0.17664393554286
H           56.67090192508018       -4.50040441181394        0.24689324992943
H           60.33993364304241       -5.00409738114962        2.03127956990780
H           60.33965713755442       -7.48598296599426        2.09390031668524
H           58.31524668656400       -7.58381571916904       -1.68141863631826
H           58.32138247260473       -5.10209281502358       -1.75058145515914
H           61.99488163337568       -4.51178742544307        0.02075942674143
H           63.87909323867755       -2.60642529078571       -0.01922827526613
H           63.88115952942729        2.67769994741741        0.02982494679909
H           61.99956717799000        4.58460624004614       -0.04805323990469
H           60.38474651988050        5.03576885268760       -2.10193976039602
H           60.38514831023701        7.51538525509299       -2.22174352318806
H           58.28798302856204        7.69851024007324        1.51044346951018
H           58.29585491841846        5.21934378153728        1.63842866787863
H           56.67705736348105        4.57673033123159       -0.34072506106578
H           54.79330836443008        2.67322395607553       -0.25073507876331
Zn          77.95851004640205        0.00997352848476       -0.01272332888900
C           74.51817505950198        0.01766895737400       -0.04419600622929
C           75.15897650017091       -1.23631658668993        0.02304581744998
C           74.47751218854746       -2.49389827822878        0.10999675963858
C           75.43058393278206       -3.45996570624885        0.14412372248669
C           76.70407188872244       -2.79950867439206        0.07009067349462
N           76.50230469282108       -1.44720987182248        0.00730077997069
C           77.94976273674587       -3.43724108001592        0.09246094432246
C           77.94656480033368       -4.91923491988663        0.13276342622660
C           78.51486639914695       -5.59817810806574        1.21509664299094
C           78.51417278566420       -6.98037836562048        1.25743837928520
C           77.94521329738430       -7.69162499882284        0.20461921769583
N           77.94568498786454       -9.14282799957451        0.24166064932443
O           77.44374943891734       -9.72481434507224       -0.68584222700977
O           78.44810535558820       -9.67639129364383        1.19761077018605
C           77.37611857570164       -7.03531046022479       -0.88322295242127
C           77.37661288194731       -5.65276204896598       -0.91244039796125
C           79.19886214033737       -2.80549244629226        0.08104379174438
C           80.46930103966670       -3.47524012586857        0.05297098755307
C           81.42715468259821       -2.51339654305992        0.03967285261419
N           79.40711724562692       -1.45292606498217        0.06655346648827
C           80.75167128723429       -1.24973790628539        0.04846480480611
C           81.39870243766956        0.00279129217160        0.04380872705385
C           80.75749357353281        1.25781639604196        0.01298664158676
C           81.43739322738001        2.51888720462502        0.03497784074525
C           80.48458958815705        3.48421225223455       -0.02221553306566
C           79.21305471554713        2.81913875785823       -0.08851687980070
N           79.41509605274192        1.46609455795512       -0.05347109128947
C           77.96773346399407        3.45613792084328       -0.14826045470431
C           77.97352470115626        4.93683171017503       -0.21885555235306
C           78.58406253030505        5.58815211540277       -1.29535632422456
C           78.58984943396533        6.96882037375381       -1.37125562702534
C           77.98407435987873        7.70693886746547       -0.35820410121203
N           77.98893571454815        9.15671388133633       -0.43163356342253
O           78.53282299795133        9.66558875207846       -1.37831910454726
O           77.44854752302440        9.76233004671368        0.45837435252567
C           77.37380117629704        7.07864597093027        0.72384750648862
C           77.36914991755759        5.69719821307936        0.78712379459891
C           76.71875978036999        2.82414846039838       -0.14955825811123
C           75.44982389664480        3.48856221760373       -0.25912806999398
C           74.49185790202650        2.52727950582329       -0.22704406864599
C           75.16591950058231        1.26816895487271       -0.11066813180572
N           76.50966539321992        1.47358314156953       -0.07287270353988
H           73.40667017938867       -2.61459369261807        0.14631503763121
H           75.28491184205745       -4.52493567548657        0.22616449077366
H           78.94443993096237       -5.03286277478309        2.03392850361700
H           78.94646483060876       -7.51476682122314        2.09483775734133
H           76.94347449952508       -7.61195074544271       -1.69192103052536
H           76.94744982708397       -5.13014654338091       -1.75937844970130
H           80.61033755222620       -4.54376324823320        0.03226165146607
H           82.49755115815999       -2.64121853155694        0.01781427733920
H           82.50688671629182        2.64260137228807        0.09396986598244
H           80.62911846726780        4.55236342379130       -0.00619668587650
H           79.04139408021700        5.00197211566682       -2.08394193933944
H           79.05462202275456        7.48147432591597       -2.20483757018989
H           76.91340755714859        7.67592655924084        1.50165904606048
H           76.90840039815953        5.19685736711723        1.63089950559221
H           75.30990659639687        4.55255526286939       -0.36110004931551
H           73.42245295489153        2.65192359277435       -0.28566862630113
