138
 energy: -220.140215431939 gnorm: 0.000309145913 xtb: 6.5.1 (b24c23e)
Cu          16.75664602031928        0.03369448849701        0.00904385347303
C           13.35635406237142        0.15051281704818       -0.15995108663263
C           14.00312795750162        1.31895010297583        0.21436248348601
C           13.34102400295499        2.54503725708273        0.55779749747599
C           14.30718634023367        3.43482924341860        0.89536982634794
C           15.57009883657992        2.76246270162832        0.75307498936465
N           15.35349146318701        1.47880177902761        0.34102809501506
C           16.81646564995191        3.32851582608407        1.02866180672006
C           18.03983785715996        2.66439995507070        0.92250617732172
C           19.32254447076835        3.26538516686628        1.15600238457562
C           20.25881732581917        2.31537287438402        0.90636057644081
N           18.21602718401329        1.36297496719191        0.53401293267002
C           19.55739913691766        1.12927901409073        0.51484997886410
C           20.18075980239980       -0.06761307879410        0.12644032457347
C           19.51513221066290       -1.23265614778635       -0.28718768926903
C           20.17125220532380       -2.44344880718018       -0.68130382791747
C           19.19890937601648       -3.34060514302312       -0.98393061186815
C           17.93961573623877       -2.68458118820290       -0.77206359873858
C           16.68947970295817       -3.27034042279430       -0.98126855216424
C           16.66454134766377       -4.69858854035249       -1.38841002435451
C           16.14996517936100       -5.07093777375986       -2.62799773098993
C           16.13085774346609       -6.40868453421124       -3.01283167347873
C           15.56308816559216       -6.79741898782227       -4.35138356229196
C           16.62561935097457       -7.37481290082489       -2.14418271075862
C           17.14089423830837       -7.01854538828549       -0.89995662691110
C           17.68591607152749       -8.07681665129485        0.02095198151048
C           17.16043291993379       -5.67955614815348       -0.52921468453610
C           15.46414775010597       -2.61619852602570       -0.83883708069471
C           14.17471605828480       -3.22235586441349       -1.03184205224141
C           13.24446694217120       -2.26061798814164       -0.81072184556061
C           13.95536478048061       -1.06185072842826       -0.46844346354218
N           15.29862435214248       -1.30747825252767       -0.48567091125973
N           18.16547519932963       -1.39893135453466       -0.35854301094852
C           16.84386716132854        4.75118392450726        1.45528787314636
C           16.41259080248703        5.75086211656273        0.58447329790499
C           16.43934258656432        7.08590570168084        0.97251813726132
C           16.00061402099952        8.16437310817718        0.01889707999443
C           16.89758024828146        7.41717918184588        2.24429774076059
C           17.32951753975072        6.43065003540654        3.12553565712005
C           17.79941068566448        6.79892222457114        4.50707129355902
C           17.30250939541067        5.09893037861525        2.72470054934676
H           12.27255771301743        0.18485726317030       -0.20367202029832
H           12.27217268256963        2.69032737534248        0.54488018771476
H           14.18307573996548        4.45421146720991        1.22404204278382
H           19.48255876342945        4.28810645053363        1.45692531609356
H           21.33153958243463        2.40480883821094        0.96933841762046
H           21.24004894384641       -2.58152008891233       -0.71877464881380
H           19.31897218107825       -4.35387979675221       -1.33185841497672
H           15.77824415461163       -4.30786715364501       -3.30317790243543
H           15.87528312915828       -7.80356138534650       -4.63098295571688
H           14.47171481486919       -6.77468974448980       -4.31381627016560
H           15.88782327352945       -6.09985357878445       -5.12435704676633
H           16.61169553222237       -8.41951808562254       -2.43767195376301
H           17.80953381988605       -7.68890942148798        1.03194221852397
H           17.01895379259448       -8.93928502102236        0.05354796786618
H           18.65969566303993       -8.41736245593530       -0.33782025548290
H           17.54927929122590       -5.38964564750626        0.44085291708890
H           14.00996159416997       -4.25514472751335       -1.29406388786339
H           12.17021205370148       -2.34346427958216       -0.86402995562574
H           16.06950319196547        5.48086585091575       -0.40835098807232
H           15.53070328889111        8.98894546718257        0.55567387114708
H           15.29561264645455        7.77247292423523       -0.71439507962105
H           16.86624865091554        8.55925042629409       -0.51799235457339
H           16.91869651033424        8.45765163247521        2.55203676017424
H           16.95030244595444        6.82057266679108        5.19414506000876
H           18.26202673180237        7.78618763630889        4.50931369025468
H           18.51934192248052        6.07027768272246        4.88017150739743
H           17.62613123946722        4.32017900590553        3.40668438178717
Cu          27.64364748745351       -0.01797834835953       -0.02990344489873
C           31.04394992479421        0.11161980679074       -0.18903078134437
C           30.39716542738631       -0.57309057786835       -1.20712490905402
C           31.05925908537789       -1.24414722051053       -2.28922117445481
C           30.09309528206298       -1.81606929682737       -3.04986776437620
C           28.83018684872336       -1.49226602016781       -2.44366232873012
N           29.04679475105110       -0.73914788009273       -1.32545664100315
C           27.58382113861757       -1.91454497954827       -2.91061502067514
C           26.36045182268307       -1.62771224574581       -2.30229276395089
C           25.07774281579146       -2.01925040118924       -2.81453693591557
C           24.14147184943160       -1.51501032370509       -1.97156938988714
N           26.18426493068448       -0.89225236906716       -1.16048138375575
C           24.84289585438874       -0.80887600459324       -0.94129690569834
C           24.21953794980113       -0.10268558242932        0.10019606402981
C           24.88517208162940        0.61893531582015        1.10402194886295
C           24.22905644362496        1.33460211193951        2.15719264063482
C           25.20140434912311        1.87496199366028        2.93467558474160
C           26.46069358258911        1.48882795151464        2.36356807853490
C           27.71083192724556        1.85278808010032        2.86795887656465
C           27.73577064142600        2.64142963904408        4.12641030222939
C           28.25035867410163        3.93566845721296        4.13897746867143
C           28.26947075847113        4.67768162795535        5.31672128345762
C           28.83725235781859        6.07153285594477        5.31747888286144
C           27.77469933491819        4.11231411107668        6.48646605604734
C           27.25941167882708        2.81809815958825        6.49063508567253
C           26.71436924138830        2.22819124111889        7.76342685073638
C           27.23986920548115        2.08927396643351        5.30777589416487
C           28.93615919547547        1.53389461619483        2.27931430762396
C           30.22559308495524        1.88798665883541        2.80779191384925
C           31.15583687381632        1.40793134215478        1.94559480000854
C           30.44493859145901        0.74540893146353        0.88953613432355
N           29.10167493141773        0.83043343610868        1.12059741775490
N           26.23482995246613        0.73382025340360        1.24381073792140
C           27.55640980917488       -2.72030812150830       -4.15830805782041
C           27.98767873598402       -2.16219040407233       -5.36088429671084
C           27.96093341501981       -2.90653682410269       -6.53513787950759
C           28.39965625575545       -2.29082524398734       -7.83644112253356
C           27.50270514922408       -4.22026736907448       -6.49928807678241
C           27.07077217588181       -4.79205321862377       -5.30644051135247
C           26.60088633353820       -6.22149992659543       -5.27557192690331
C           27.09777521708650       -4.03634900290712       -4.13894119959819
H           32.12773814967607        0.14413230069490       -0.23424263088776
H           32.12811090487791       -1.27219000260923       -2.43236074526068
H           30.21720072334468       -2.41551336906860       -3.93746763875208
H           24.91772728160712       -2.59298902670388       -3.71305639677296
H           23.06875061295533       -1.60041166046524       -2.03992072760348
H           23.16026038730090        1.40902933406647        2.27937542327647
H           25.08134846356703        2.49117645014466        3.81106439639083
H           28.62209137720281        4.37173848736597        3.21811941515493
H           28.52506186643922        6.62016414442071        6.20601987649092
H           29.92862535662244        6.02911437945794        5.30610484799682
H           28.51252123523766        6.61977407227325        4.43231252037628
H           27.78861783022578        4.68502147549186        7.40817741762403
H           26.59074258931031        1.14918022853313        7.67228598674282
H           27.38132598133979        2.43696671862179        8.60088378322074
H           25.74059120160592        2.66759036962182        7.99063070469898
H           26.85100594910368        1.07685298394648        5.29936059616436
H           30.39034888667669        2.42730192033379        3.72678700781648
H           32.23009288558423        1.48217754613362        2.01033118216999
H           28.33075956094845       -1.13344752131482       -5.37793520129618
H           28.86956710898036       -3.03592273945514       -8.47899747580172
H           29.10465625449680       -1.47742193578262       -7.66416269131743
H           27.53401967243704       -1.88508296175743       -8.36516431472262
H           27.48158658373690       -4.80547961736292       -7.41296895785114
H           27.44999909947234       -6.88743703593051       -5.10510467758368
H           26.13827046866507       -6.49848429751764       -6.22318871081937
H           25.88095731988139       -6.37702157115260       -4.47186607764452
H           26.77415846648715       -4.47459596456843       -3.20112539216334
C           21.59240731153760       -0.09310625581694        0.13492282043329
C           22.80789002680448       -0.10365337476435        0.12701244749944
