201
 energy: -323.778092153970 gnorm: 0.000699399453 xtb: 6.5.1 (b24c23e)
Zn          38.56887310806253        0.06633592561892       -0.04779814671129
C           35.15456481420442        0.13469516335740       -0.08642805310255
C           35.78333170377712        1.04606456901032        0.75359658794713
C           35.10819476071920        1.97470792134444        1.61550687358976
C           36.06666994279981        2.67277720936979        2.27522716261021
C           37.34012199613651        2.18632402453086        1.81524452780608
N           37.13271056726025        1.19634344361300        0.89954213513591
C           38.59012276363694        2.63077562086948        2.26426801829809
C           38.59986624279946        3.74085650807981        3.24831187559186
C           38.05384675255729        4.98488573914106        2.92064339679713
C           38.07206496320330        6.02727087824312        3.82829330865486
C           38.63403867845453        5.85406499400535        5.09866393829588
N           38.58017994525802        6.91293403160895        5.99567654478673
C           39.55321465486949        6.98510130281901        7.07778453155996
C           39.16515013192324        4.60692518997033        5.43851595965973
C           39.15193505377734        3.57139845350364        4.51896621678528
C           39.82954158739503        2.12041217021504        1.85967444690707
C           41.10577235764843        2.60345606802234        2.30580958544088
C           42.05483596401007        1.86669500823724        1.67403726562209
N           40.03017858441702        1.10889317012774        0.95705678321181
C           41.37417929884640        0.93788162020537        0.82289292933875
C           42.01376472145544        0.00805616428097       -0.02419278739442
C           41.35608131566686       -0.90902076115375       -0.87109995224908
C           42.01736728862198       -1.87379160746184       -1.69748052657064
C           41.05307094132227       -2.58647621522316       -2.33377055634277
C           39.78772147246959       -2.05053505466853       -1.91769861413820
N           40.00930671004465       -1.03472989102318       -1.02493398658963
C           38.53755822481092       -2.51842367698495       -2.33967186085226
C           38.52047194369388       -3.64737225566121       -3.30202737459915
C           39.09756177770888       -3.52786784217374       -4.56704142023549
C           39.08181126040309       -4.58316882060059       -5.46399401202052
C           38.49596376779134       -5.80029985731560       -5.10585870516845
N           38.41210763964155       -6.87578267933727       -5.98088492240717
C           39.39727841096888       -7.00957704262988       -7.04616947489805
C           37.90919993528399       -5.92317554910100       -3.84091497512864
C           37.91980990785198       -4.86106424446460       -2.95641136619062
C           37.29727057382487       -2.01759701727049       -1.92416060206795
C           36.01576167546997       -2.45658658117622       -2.40908164988261
C           35.07195540317004       -1.71246623974823       -1.77933464095650
C           35.76474120533737       -0.80439955696705       -0.90936832636576
N           37.10977116287090       -1.01075664035825       -1.02288302015135
H           34.06911404692453        0.15672426903284       -0.09886969821461
H           34.03677210282724        2.06558692852287        1.70475664638878
H           35.92695876948642        3.44076292392776        3.01919753562232
H           37.63180252275116        5.13954455299419        1.93351650651506
H           37.65180473452463        6.99022558769121        3.55731381283085
H           38.45675699854414        7.80594215912822        5.53316933615967
H           40.57971710497929        6.89522065521845        6.70393507466223
H           39.36510851013232        6.19294070662386        7.80351261302745
H           39.43349396759412        7.94808518627430        7.57433238683530
H           39.58775715130397        4.43642243272005        6.42118856513790
H           39.55877145062209        2.60556669909368        4.79870492293809
H           41.25838564602347        3.41054630823412        3.00407394865636
H           43.12444258524102        1.94390607695326        1.77473995589011
H           43.08518959058564       -1.99302810836402       -1.77487954353586
H           41.18778576300265       -3.40943889878979       -3.01703908594718
H           39.54727568944721       -2.58562929059480       -4.86118463186445
H           39.52459210106363       -4.45125978744703       -6.44372859224487
H           38.24890030953876       -7.75278323258340       -5.50028196234463
H           39.24961088525418       -6.22791602623241       -7.79235824366823
H           39.24832059661396       -7.97862712911907       -7.52257809174986
H           40.42086837371980       -6.94960447810443       -6.65870305906856
H           37.44629048650989       -6.86216907214288       -3.55576552370686
H           37.47678025991537       -4.97633680020015       -1.97309184280461
H           35.86212568376826       -3.22604596706957       -3.14879214322603
H           34.00003450323569       -1.76004008929650       -1.89277289184071
Zn          60.45187855974760        0.02447495524118       -0.00440139702636
C           63.86650275135574        0.08601784994718       -0.06624177055024
C           63.25148864486549       -0.93859284251768       -0.77572995226187
C           63.94047799395683       -1.97350142705340       -1.49357171860415
C           62.99261731699114       -2.77670038317666       -2.03908668566971
C           61.71190137321241       -2.23478971036731       -1.67023078342472
N           61.90446120679303       -1.12660037474625       -0.89800803950559
C           60.46898009648694       -2.77708979154228       -2.02007313750413
C           60.47688142953336       -3.97080488443095       -2.90079227322027
C           61.03467232308962       -3.90379669306140       -4.18045868970514
C           61.03469689924946       -5.00832485297738       -5.01152830307135
C           60.47976362923655       -6.21996548056287       -4.58324524851694
N           60.55197902928373       -7.31713378377855       -5.43221023989654
C           59.58603653721941       -8.39834168724984       -5.28681282631127
C           59.93683408671124       -6.29810570222333       -3.29798621647966
C           59.93157995711837       -5.18330185810756       -2.47614354001301
C           59.22194183866239       -2.28387963140752       -1.61755042362756
C           57.95389502765237       -2.82845078291381       -2.01289053169279
C           56.99324743206428       -2.06450124706931       -1.43309508161960
N           59.00497946302306       -1.19337506799746       -0.81637441555299
C           57.65819995940072       -1.03624740635671       -0.69106564840425
C           57.00322295688715       -0.02155990749186        0.03926636679683
C           57.64927697062443        1.00209402441558        0.76521202510528
C           56.97630204270146        2.00005972205273        1.54024833854154
C           57.93025572526398        2.78445615197419        2.10341953957530
C           59.20172985566543        2.28472219112923        1.66263276283249
N           58.99400880832835        1.19623570408930        0.85631958006050
C           60.44428017104730        2.81774954854107        2.02688956585433
C           60.44086774050464        4.00627045854328        2.91441335300708
C           59.83258915948450        5.19856298017351        2.51865494832128
C           59.82459840284085        6.30837839370908        3.34704661078094
C           60.41845225171081        6.24540242662268        4.61049484701489
N           60.47800873089729        7.34009458304785        5.46335882854546
C           59.46272907894563        8.38049167497454        5.36352859368689
C           61.03757154000934        5.05488929500156        5.00910656820692
C           61.04968646900662        3.95538211462673        4.17140053183619
C           61.69204314908286        2.32207363597603        1.62848266176604
C           62.96544946316182        2.90891828281371        1.95125173433892
C           63.92016510849935        2.14377140010592        1.36460900397430
C           63.24211710099277        1.08662323815951        0.66886280168223
N           61.89495159414783        1.22467743241880        0.84370571703957
H           64.95184888238052        0.10620955982756       -0.08746146809016
H           65.01322496942008       -2.06994799615897       -1.55736327692614
H           63.14402569786218       -3.66698962621237       -2.62838689437696
H           61.45174877669638       -2.96650666385889       -4.53258280563293
H           61.46415016084088       -4.93949366141826       -6.00558487765407
H           60.67968001034105       -7.04795811386571       -6.40069827846526
H           58.55649019374172       -8.02202605378847       -5.28618667540963
H           59.76992501486220       -8.94186965941003       -4.35930881725841
H           59.71899052926804       -9.08329763846133       -6.12425960303687
H           59.51948284398281       -7.22782494238585       -2.93089962740455
H           59.51542442449814       -5.25985493342260       -1.47737195609167
H           57.81430443904236       -3.67878620281978       -2.66077684758278
H           55.92523082476472       -2.18425230205769       -1.50252928877036
H           55.90797845250732        2.08439195047395        1.64549534146069
H           57.78422067064038        3.62045716383305        2.76823738347588
H           59.37646596601142        5.26382220693980        1.53667142284152
H           59.35691415814170        7.22253757999021        3.00217566263289
H           60.65646886882769        7.07227412597956        6.42418721481619
H           59.58752325225618        8.93705308422364        4.43385037360896
H           59.59903730520049        9.06535765737893        6.20056717055387
H           58.45057749326907        7.96106570923723        5.39951674027445
H           61.50709192849718        4.99821074735343        5.98567172439735
H           61.51667838951840        3.03377066916485        4.50161422445998
H           63.10669531456143        3.80171322753993        2.53929412727075
H           64.99036112502476        2.27925742208962        1.38697166316691
C           43.42405967175531       -0.00412675474949       -0.02438561207106
C           44.64291413957010       -0.00692922296985       -0.02912663156447
C           54.37313738520498       -0.02952320346526        0.02985034207994
C           55.59236671524099       -0.02942544326040        0.04069377197727
Zn          49.50751527018799       -0.01162613232799       -0.01169370833504
C           46.05239060271732       -0.00712148462252       -0.02944306812701
C           46.70751853746565       -1.06898683395174       -0.68840554385663
C           46.05069048592043       -2.18613828812282       -1.29589116517310
C           47.01209604426955       -2.95027259191586       -1.87620801443982
C           48.26916941824079       -2.30356839616751       -1.63036645064263
N           48.05053370077875       -1.17609753523348       -0.88490481666024
C           49.51310147010174       -2.75268433408058       -2.09124928140573
C           49.51388736652796       -3.92795322646764       -2.99363257298388
C           50.22415676175430       -5.08571985259525       -2.66297720794083
C           50.22263851617122       -6.18172106725469       -3.50498643682512
C           49.51868088645789       -6.14857107743014       -4.71471061856705
N           49.50812890421734       -7.29051352631232       -5.50498861139517
C           49.24485227928790       -7.17105914517255       -6.93324089992126
C           48.80100075550817       -4.99659744441700       -5.04790912872735
C           48.80174938025047       -3.90631586253098       -4.19448382478493
C           50.75477512618085       -2.18737184676402       -1.77514279220040
C           52.01496759918331       -2.59831947781197       -2.32420822477134
C           52.97324303465622       -1.83610372621778       -1.73634733933544
N           50.96902526632674       -1.16670313131863       -0.88730838597270
C           52.31201384968062       -0.94943766365759       -0.82827616589297
C           52.96317421935005       -0.02612135325138        0.01796526876720
C           52.30410889199666        0.90483438979883        0.84969261903368
C           52.95679738397575        1.79207352225630        1.76321395221208
C           51.99545502329642        2.56811839757795        2.32731441580356
C           50.74178910222480        2.16388220549918        1.75917787237388
N           50.96239886004021        1.13436667550372        0.88316943694659
C           49.49985909730115        2.74169665651985        2.05021472861652
C           49.49691034936776        3.92654926879462        2.93988328772734
C           48.76799337721168        3.92401419893054        4.13083069834375
C           48.76537498439674        5.02320240469723        4.97273279418326
C           49.49797482632403        6.16518910515016        4.63755298658971
N           49.48714310055912        7.31528759770799        5.41546759643322
C           49.19832807160999        7.21551650550631        6.83998242279727
C           50.21919150532617        6.17908786839488        3.43761893992655
C           50.22248643821909        5.07420880569863        2.60728150960250
C           48.26013696547049        2.29522008358116        1.57624186842902
C           47.00317111634426        2.94964402401359        1.80056353730978
C           46.04543842854474        2.18297023810615        1.21761504792445
C           46.70462527910268        1.05723582197197        0.62887204652161
N           48.04572918794366        1.16155641494054        0.83869058889983
H           44.98958998904025       -2.37043967050440       -1.26713582388203
H           46.88161790412875       -3.88019838221798       -2.40589893414139
H           50.76694096131173       -5.12992098383094       -1.72467161645749
H           50.76956320434703       -7.07786493051664       -3.23042198638423
H           50.29153524422250       -7.90298610115510       -5.31073234917974
H           48.20498957040666       -6.88627103434307       -7.09936942576396
H           49.90149518448936       -6.42994975512858       -7.40402316049632
H           49.41609705861573       -8.14595315254807       -7.38989370034781
H           48.23840164477019       -4.94414583600036       -5.97227586162137
H           48.25550261322925       -3.01152875365316       -4.47349736708508
H           52.14986472922637       -3.35806560794529       -3.07722470275704
H           54.03524443913426       -1.85956067422226       -1.91455910716949
H           54.01543396920140        1.80695454600127        1.96026775027829
H           52.12376126757426        3.33307901565760        3.07618120681118
H           48.21058226790943        3.03690858577738        4.41180318199553
H           48.19073027288453        4.98523680075975        5.89012375053948
H           50.27844373010603        7.91910012996456        5.22641214304575
H           49.83777411385097        6.47239628692183        7.33040883246592
H           49.37341879115302        8.19356207566579        7.28839752729533
H           48.15259132813026        6.94486754235548        6.99137266168010
H           50.77789799144173        7.06725428169484        3.16136372905260
H           50.77797257623204        5.10382815513952        1.67620059298361
H           46.87064928235968        3.88579292706376        2.31863620490370
H           44.98591289215700        2.37230287345984        1.17249002221248
