280
 energy: -472.663794791334 gnorm: 0.000555917056 xtb: 6.5.1 (b24c23e)
Cu          50.19867301167617        0.02560578718776       -0.02845229267628
C           46.79434045355753        0.09783170019852       -0.07877520488225
C           47.42558168461823        1.00425052059396        0.75990315329068
C           46.74678825320402        1.91241731942852        1.63830196501930
C           47.70305153100696        2.62281459836147        2.28723495691365
C           48.97510316212634        2.16491728595440        1.79936530180844
N           48.77569002821927        1.17646052117766        0.87894220164312
C           50.21784154444705        2.64965014151451        2.21821693951958
C           50.22783023977867        3.77239734136142        3.18511852993326
C           49.62188710465123        4.99242242962988        2.87198537246244
C           49.64095887453596        6.04257109231640        3.77024354748495
C           50.26248890683291        5.90130489393746        5.01708810008242
N           50.20807417189356        6.96368766556872        5.90740715829980
C           51.21018948250845        7.07227419177231        6.95941741852446
C           50.85462366799721        4.67758464606508        5.34246097415448
C           50.84184367572060        3.63522384488230        4.43146863842259
C           51.45181839457306        2.15230854561255        1.79184075032041
C           52.72693798701871        2.70141699601159        2.15528047004266
C           53.67538791049736        1.94985694596502        1.53991165910026
N           51.64364159611621        1.08652053204495        0.95213227839078
C           52.98729293927308        0.94340586728670        0.79005686724180
C           53.62623906296312       -0.04179709169992        0.01586404280491
C           52.96923263210950       -1.00410655065818       -0.77183033747707
C           53.63636385644116       -2.03875169505058       -1.50195378307893
C           52.67524729271794       -2.75438014593473       -2.14019613716283
C           51.41384131198941       -2.15414793748986       -1.81145378301406
N           51.62562080811285       -1.09494421665250       -0.96814496945663
C           50.17286958662889       -2.60094395674752       -2.27188158476470
C           50.16216757050645       -3.72686610233940       -3.23521458772265
C           50.81300842024338       -3.62099035511028       -4.46573793243227
C           50.80420034947950       -4.66670619977482       -5.37305288091178
C           50.15211594776540       -5.86264969077030       -5.05931976431655
N           50.07378074560633       -6.92501501770700       -5.94791548744012
C           51.09543723139451       -7.08074536518981       -6.97483705266779
C           49.49427017556022       -5.97253923079163       -3.82805209876682
C           49.49726038562942       -4.91883557469600       -2.93383408003442
C           48.94003888139815       -2.06278876833994       -1.89062357861917
C           47.66483708996366       -2.46670633847081       -2.41652593885905
C           46.72072383282530       -1.71493351713325       -1.79708513569241
C           47.41094208686001       -0.83540748767119       -0.89868626761365
N           48.75546729591839       -1.06520283909739       -0.97706460580731
H           45.70943582171240        0.12103320369955       -0.09482581281297
H           45.67539896687249        1.97819335628861        1.74574777506558
H           47.56519844802338        3.38060426798202        3.04167243731165
H           49.15330342135928        5.12304674762787        1.90259391484721
H           49.17460584815183        6.98720570745660        3.51070463670113
H           50.03546777159283        7.84969388114150        5.44770062257607
H           52.22699800117232        7.00545542443124        6.55583746289631
H           51.06450509521083        6.28256251687542        7.69756038303802
H           51.07979943215724        8.03664046743908        7.45038107056200
H           51.32464056229430        4.53119941579096        6.30722610269774
H           51.29715415322362        2.68783303763675        4.69924598454618
H           52.87458955735819        3.56380197326923        2.78504858484070
H           54.74683983105559        2.06557742829428        1.57724329116316
H           54.70306226611342       -2.19662173694877       -1.51080672182902
H           52.80480691180434       -3.62359106749651       -2.76456074182561
H           51.31489603084763       -2.69493372815076       -4.72475464970806
H           51.30408933130767       -4.54441372992787       -6.32609788249320
H           49.85144409912520       -7.80099742259304       -5.49039020694949
H           51.00122942365151       -6.28897892325493       -7.71914730263708
H           50.93610978137275       -8.04099851795428       -7.46535450118904
H           52.10417402341068       -7.05518763758138       -6.54697551846781
H           48.98168660341081       -6.89542182450287       -3.57761833956880
H           48.99889341376804       -5.02510648024554       -1.97639809638686
H           47.51769529816305       -3.21898842676724       -3.17471827226474
H           45.65124527121147       -1.73490989088775       -1.93698535296410
Cu          98.31188027662043        0.01706646849674       -0.01871029829575
C          101.71567983985334        0.06429826500760       -0.11410900882213
C          101.08607416655325       -0.95562525493243       -0.81189351782075
C          101.76641398066047       -2.00900106781999       -1.50815277389275
C          100.81114830632460       -2.80237353390186       -2.05428895325537
C           99.53805789543711       -2.23139390386749       -1.70896243838826
N           99.73609357229739       -1.11552988597761       -0.94789392870244
C           98.29572988114991       -2.75184780435777       -2.08437059899562
C           98.28806453838162       -3.94095328596219       -2.96855704997441
C           98.88772129943509       -3.89766368375044       -4.23041588627291
C           98.87262205840338       -5.00368592702280       -5.05893068758435
C           98.26177673429143       -6.19405241509859       -4.64564385122876
N           98.32125657408541       -7.29469120337625       -5.48777846761835
C           97.33080266511740       -8.35510646423743       -5.35736528190817
C           97.67542074744749       -6.24818485312441       -3.37788111399523
C           97.68392002669081       -5.13130855721186       -2.55977234909821
C           97.06104055727025       -2.23195527763634       -1.68807126439126
C           95.78610905137214       -2.71240029764731       -2.13912378146699
C           94.83687153161880       -1.94860734518952       -1.54021455412511
N           96.86802489883198       -1.17812827588818       -0.83365131820365
C           95.52420287603717       -0.99224191192260       -0.72663968680450
C           94.88440956042017       -0.02046348264396        0.06383199329019
C           95.54046228539042        0.96078699230862        0.82900619533494
C           94.87261457742282        1.89767414085174        1.68048625998925
C           95.83288083475682        2.67908721360671        2.23770549531736
C           97.09444302530532        2.23069241302381        1.72090267567607
N           96.88347824977583        1.17559804909755        0.87226421535005
C           98.33468194695017        2.78204434374166        2.05207646843285
C           98.34366473811998        3.96988908541850        2.93778259820401
C           97.68323557499237        5.14260894185391        2.56660767179455
C           97.68970921833228        6.25854421895485        3.38594108517476
C           98.34962147750835        6.22112003082519        4.61764910321131
N           98.42603886627568        7.32314191577757        5.45660548069591
C           97.39686435931203        8.35209478479262        5.38849703922820
C           99.01722721874111        5.04876644820422        4.99284399083690
C           99.01608704784276        3.94368523831808        4.16290957276570
C           99.56797322899976        2.29666878232427        1.60630632815890
C          100.84184210808635        2.90402656679827        1.87903329690669
C          101.78658185618679        2.13871429191862        1.27735637750113
C          101.09800912915604        1.06606501738116        0.61973554792523
N           99.75397625125568        1.18707722622674        0.83311801647336
H          102.80040732873445        0.07995160666033       -0.14528888777138
H          102.83812192401577       -2.12358844217704       -1.55364032782467
H          100.95042376890326       -3.70421827268179       -2.62849361415555
H           99.34850991781883       -2.97701283870186       -4.57163028966454
H           99.33416448844753       -4.95351050215622       -6.03956364028651
H           98.48666470016241       -7.03900144428455       -6.45385894659636
H           96.30966222708156       -7.95727572812835       -5.37404916026172
H           97.48799870739741       -8.90105252128518       -4.42623826292927
H           97.46305119183737       -9.04381344969688       -6.19179412540703
H           97.21340579304844       -7.16094023504884       -3.02214353131498
H           97.23330102624844       -5.18884592023615       -1.57478720487724
H           95.63912409275727       -3.51838500833946       -2.83979097268369
H           93.76530695413615       -2.01406566048369       -1.64167103532190
H           93.80614602959953        1.93817973048827        1.83489050024225
H           95.70249551277837        3.47739236506068        2.95033955794528
H           97.17554940513043        5.18754040772748        1.60911217945036
H           97.18194932859974        7.15772446519984        3.05914733384210
H           98.65738583734189        7.07267547929965        6.41045129923865
H           97.48027889993085        8.90302249258748        4.45079121139869
H           97.55766499710178        9.04434154743361        6.21494524564543
H           96.39156866284651        7.92236750541681        5.46593997021031
H           99.53591360497572        5.01174665201983        5.94509159315519
H           99.52189288433240        3.03657120814755        4.47541404480107
H          100.98772009296273        3.80969627535608        2.44552383421428
H          102.85535440327205        2.28438465877371        1.26106047801450
C           58.82807500179619       -0.07770775324659        0.04223222357668
C           57.59956948388833       -0.07946905926872        0.03975594255801
C           56.25524292806434       -0.07384503124182        0.03496178318350
C           55.03128747464687       -0.06327528705125        0.02799679762776
C           60.17228598268637       -0.07150343126445        0.03901441431261
C           61.39638681603864       -0.05962637431576        0.03301686747579
C           74.86976056210830        0.09551320127420       -0.09404239402729
C           73.64104280656703        0.09608468643443       -0.10168341375746
C           72.29703871394743        0.09545812189360       -0.10348172776396
C           71.07273898225462        0.08837364925487       -0.10257171197879
C           76.21365542549384        0.09253941934535       -0.08070981404093
C           77.43790465877274        0.08439564740190       -0.06605244061812
C           90.91111775130427       -0.02700351757313        0.11037659157081
C           89.68251445135778       -0.02259440925494        0.11190478846239
C           88.33840593356359       -0.01332231179194        0.10735785264936
C           87.11418728840742       -0.00548139004849        0.09528865933425
C           92.25539411604548       -0.02741952961093        0.10229753230511
C           93.47942030098109       -0.02750466932904        0.08766103103275
Cu          66.23456643281725        0.01919724410382       -0.04014446743714
C           62.80108862982625       -0.04600725065026        0.02407673235041
C           63.45341304044174       -1.02918757015519       -0.74212522940863
C           62.77754078928321       -2.01769497089903       -1.52606625601645
C           63.73635484933388       -2.76111607826642       -2.13570214624699
C           65.00505629307496       -2.23694402143523       -1.71837074023077
N           64.79909710880806       -1.17682482586104       -0.87553125986943
C           66.24684437083360       -2.72023807458416       -2.13857634644593
C           66.25015883594864       -3.89421387184810       -3.04489263921235
C           65.70564259136731       -5.11442906584270       -2.63557360414705
C           65.70431087862957       -6.20715269021142       -3.48187870884438
C           66.23765980899454       -6.10798765003901       -4.77274751422520
N           66.25373909950170       -7.24346398044986       -5.56997339904423
C           66.32835083696985       -7.10422647751759       -7.01833738571492
C           66.79081617896416       -4.89207232528284       -5.18416330096846
C           66.79500436240902       -3.80475400494464       -4.32676261099393
C           67.48388986594072       -2.18340082138280       -1.77379946443692
C           68.75730907935133       -2.71632598379452       -2.16498203538128
C           69.70921912870062       -1.93105878559588       -1.59870761668461
N           67.68023138458969       -1.09363612101923       -0.96690766100217
C           69.02448469322943       -0.92039218585115       -0.85126253876913
C           69.66812229770312        0.07917661821324       -0.09876037293175
C           69.01576655013412        1.06011744925958        0.67064863801403
C           69.69149738426947        2.04197705337598        1.46297694946031
C           68.73256529312468        2.78969575900240        2.06726885726753
C           67.46392531763348        2.27430254135904        1.63903586230325
N           67.66996153748700        1.21488350516478        0.79518097851339
C           66.22180644253039        2.76532626165791        2.04945193163482
C           66.21494006908078        3.94536208252424        2.94717301225100
C           65.64317003909275        3.87207802776203        4.21843035622010
C           65.63192001916276        4.96886179354413        5.06354583434064
C           66.19691896267037        6.17873049007879        4.65044463976390
N           66.16120611790063        7.32508510726682        5.43057966211914
C           66.03203737588916        7.21040576353710        6.87693100441243
C           66.76263367765483        6.26023457540643        3.37200536215746
C           66.77573548260474        5.15837768943275        2.53792592366167
C           64.98454889482136        2.23078188682924        1.68062220478469
C           63.71076968616202        2.77214346022297        2.05906677403115
C           62.75918314523182        1.98191730325957        1.49915928901644
C           63.44439486326022        0.96095624287620        0.76663377371413
N           64.78875807951610        1.13274591043158        0.88508760728049
H           61.70654829847106       -2.11748962186635       -1.60209610297926
H           63.59797185359935       -3.58245297284172       -2.82004965512049
H           65.29690497745428       -5.20863065471815       -1.63544508204810
H           65.28788487584136       -7.15164817575076       -3.14778606067324
H           65.56580443945899       -7.93009196048242       -5.28451163413401
H           65.56187947267507       -6.41852236674817       -7.39758872491990
H           67.31376935128823       -6.73718500285625       -7.30850673786856
H           66.17983076835210       -8.08998206519106       -7.45924556163473
H           67.21933932657299       -4.78711095255196       -6.17334810870020
H           67.21009014305692       -2.86126264219436       -4.66451444993961
H           68.90248316447142       -3.58935325433582       -2.78040835125106
H           70.78110318324754       -2.02511028636402       -1.66911837122013
H           70.76247371370782        2.13492358399925        1.54767987176034
H           68.87040661287908        3.60787427376031        2.75549949605319
H           65.21744730999214        2.93389734806557        4.55771979932703
H           65.18086130932151        4.87603123887210        6.04385520676440
H           66.85982994588002        8.00598262185094        5.15822029826871
H           66.78454483456734        6.53325547787945        7.29709642191619
H           66.16159494393301        8.20391412771746        7.30625818957237
H           65.03695705900121        6.84593755986126        7.13542662267076
H           67.19094545431750        7.19929665027716        3.03755940325086
H           67.20732345755737        5.23997716509232        1.54629590741010
H           63.56456301674552        3.65398041684246        2.66148228404873
H           61.68726446984503        2.07993462121348        1.56364813499156
Cu          82.27581806535889        0.04087496814617        0.01282767096356
C           78.84210747201772        0.07339742014483       -0.04562782475427
C           79.49369627286124       -0.95209570426261       -0.75544168049234
C           78.81911955137849       -2.01496504084606       -1.43616899408503
C           79.77777251393243       -2.78911930747296       -2.00691459495925
C           81.04419602075541       -2.19658407150597       -1.68560891347468
N           80.83847198584945       -1.08317555795140       -0.91451245176209
C           82.28575208634507       -2.69420430383664       -2.09055976917160
C           82.29162382001024       -3.86456213179507       -2.99910394609801
C           82.92728035980358       -5.05356962506153       -2.62988256792102
C           82.93744562434617       -6.14332777790741       -3.47954228251391
C           82.32236861827599       -6.07225074351753       -4.73561009348245
N           82.32167084694511       -7.20525798029927       -5.53571440795863
C           82.15522081181859       -7.06992706767807       -6.97663811364385
C           81.67814520123402       -4.88846410438962       -5.10669349882259
C           81.66486747261607       -3.80476090712120       -4.24524230896094
C           83.52371919794618       -2.17119335892956       -1.70666414910004
C           84.79414788992203       -2.62851522493572       -2.19145415464628
C           85.74735798474626       -1.87582373497547       -1.58400534820823
N           83.72171487897562       -1.14044524593053       -0.82638942666901
C           85.06537004607448       -0.94799551576347       -0.73434972261532
C           85.70989376999670        0.00566816377027        0.07502082260401
C           85.05636081341170        0.97254506213497        0.86097805873564
C           85.72593304715468        1.88992780717899        1.73155057928053
C           84.76708512114377        2.66594087295967        2.29960659377592
C           83.50606797308878        2.23258818110364        1.77023238052612
N           83.71444539559904        1.19282959696146        0.90326043752286
C           82.26638352405749        2.78491393542358        2.10420176034101
C           82.26426354261352        3.96646499697936        2.99823058898541
C           81.59263239701778        3.93772953184010        4.22178006428746
C           81.59366819820085        5.03545927448121        5.06552855847729
C           82.27074529347158        6.20208516772525        4.69870866876933
N           82.25874677537081        7.34918688475694        5.47831078006927
C           82.03145275070780        7.24354352397930        6.91331567429608
C           82.93339784023991        6.24120017210641        3.46561741946568
C           82.93488486369608        5.13769205580388        2.63394545634806
C           81.03006365969890        2.30941017009695        1.65882604668751
C           79.76495998022523        2.92772957985153        1.93356026766218
C           78.81157738097153        2.16776036737507        1.33561142006766
C           79.48853931813807        1.08882083065286        0.68314384783392
N           80.82941403555662        1.19559205249926        0.88695389140529
H           77.74961805706531       -2.15052267302158       -1.45996184050426
H           79.64219498738262       -3.69263842108874       -2.57902712693027
H           83.40046535915377       -5.12645958705346       -1.65671511490738
H           83.42504574364885       -7.06372606776331       -3.17578952476591
H           83.05968454955377       -7.85524985054276       -5.29293484482742
H           81.13900777455586       -6.74776795600357       -7.20720688563600
H           82.86621261298893       -6.35039781363467       -7.39873347373034
H           82.32166367989734       -8.04801541778062       -7.42805268486559
H           81.18546236874379       -4.80608007869208       -6.06771677143370
H           81.17826961132532       -2.88551366401945       -4.55306605774570
H           84.93656831751069       -3.41206327602133       -2.91800274631415
H           86.81764686258749       -1.92984878106538       -1.70386786306879
H           86.79198888045740        1.92201526569088        1.89073015559840
H           84.89855880493892        3.45049034589624        3.02716334257549
H           81.07915946679030        3.03215617461833        4.52644068694589
H           81.06512189839881        4.97749015993649        6.00912990650858
H           83.01691445571150        7.98230107876684        5.25386233348242
H           82.71130653101011        6.51955546865581        7.37702721140649
H           82.19729126689916        8.22676049527383        7.35368109307698
H           81.00090398153117        6.94368282160079        7.10764103483020
H           83.44796096586813        7.14794147073697        3.16528705268020
H           83.44464927615148        5.18575232057785        1.67785474821600
H           79.62725944024736        3.83716318451946        2.49569288490333
H           77.74462509161185        2.32344618688531        1.32260738230702
