126
 energy: -215.883920522315 gnorm: 0.000272892838 xtb: 6.5.1 (b24c23e)
Co          14.13045443810826        0.04055470340533       -0.02875909028992
C           10.76198629091288        0.12331435775769        0.10216369438077
C           11.41469268465329        1.06933489098622       -0.65976955431225
C           10.75255968570631        2.05972919745300       -1.45178871305719
C           11.71117995981614        2.91028823964662       -1.89066465625744
C           12.95541827237269        2.44821484173459       -1.34950159755282
N           12.77064486845985        1.28140090901687       -0.65335235961107
C           14.14854768599935        3.15921185959687       -1.40964455938618
C           14.15813687450380        4.50613213675317       -2.01875183827578
C           15.00932724520976        4.79866949412238       -3.08797417142396
C           15.02133369797351        6.05706819697832       -3.66186435082843
C           14.18915195947157        7.06318473798185       -3.16357505916230
N           14.17220585118700        8.31232248015771       -3.75770891498959
C           13.33205465694351        6.77807544587212       -2.09715564091961
C           13.31805591125859        5.51365994239508       -1.53663929046071
C           15.33116864525033        2.63712915726946       -0.90390637248688
C           16.57465987845527        3.34592699622223       -0.86930020352074
C           17.52315135796266        2.45466107650528       -0.49101885787279
N           15.50739669646490        1.34192463016933       -0.47276725023023
C           16.85489948115938        1.20960748604052       -0.28467130939964
C           17.52147263921621        0.00217744623912       -0.06079470322692
C           16.82859346870639       -1.18863126256431        0.17414739711490
C           17.46526092504168       -2.45594996739818        0.33906892319770
C           16.50249577729891       -3.32542109650413        0.73268887756217
C           15.28339606644538       -2.58017942913533        0.82117457849520
N           15.48620835609409       -1.28194338539631        0.41206243777672
C           14.10514021930888       -3.07136469339572        1.36609553442879
C           14.09138935976961       -4.42862857252500        1.95251598788939
C           14.96582449315406       -4.76563776394544        2.98923786491103
C           14.95189236155318       -6.03182140792320        3.54577637040738
C           14.06965006208914       -7.00131141270027        3.06114317648221
N           14.02630836942128       -8.25670529666005        3.64032886894422
C           13.19060298215140       -6.67193130847468        2.02570776672758
C           13.20219465515544       -5.39942164025884        1.48362096153855
C           12.93829861910313       -2.31611642143995        1.37726596616310
C           11.70900077120474       -2.73954906206003        1.98093974964992
C           10.76533077085028       -1.83585505012810        1.62462628661296
C           11.42109907197194       -0.85673303332342        0.81297734550582
N           12.76524776336708       -1.12271102739564        0.72438634653077
H            9.67915936996531        0.14715159266269        0.13841352636012
H            9.69001588038405        2.08621561759315       -1.63476389957829
H           11.59833004403576        3.77619954463017       -2.52275742851046
H           15.65154069758009        4.02091270235131       -3.48653791868814
H           15.67726881537559        6.26801742229609       -4.49942171360117
H           15.00533760804031        8.55302343286174       -4.27038977695356
H           13.82047687932606        9.05697450724391       -3.17744440890405
H           12.68192397081286        7.55406513342094       -1.70805088239309
H           12.66484728680889        5.30675567561455       -0.69598073242348
H           16.69607022669897        4.39074852443796       -1.10466873446434
H           18.58283754742306        2.60889974134264       -0.36567928006682
H           18.51490860395273       -2.63982116806776        0.17494883201747
H           16.59886851031583       -4.37773316823817        0.94539236366089
H           15.64699023334358       -4.01616274320150        3.37718372929341
H           15.62571202215913       -6.27711603222516        4.35946260871102
H           14.86422339226776       -8.53278418776454        4.12669891007888
H           13.63105726896688       -8.98127962506037        3.06275204294602
H           12.50233551654472       -7.41963922036861        1.64685639498680
H           12.52924752925844       -5.15710818423453        0.66832390700787
H           11.59589097026381       -3.61753792118383        2.59609311985130
H            9.71541423714917       -1.82165490268160        1.87085108640155
Co          30.07868500960328       -0.04804453595406        0.01636975284013
C           33.44455445513963        0.01503411086343        0.15809015300206
C           32.79143255930296       -1.14740287774056        0.51077011355315
C           33.45013438222080       -2.36222118703924        0.88063996500663
C           32.49089560286349       -3.19776762471749        1.34682499159665
C           31.24981051791424       -2.48390458827519        1.27930827615869
N           31.43631705168976       -1.25559713621575        0.69933936726552
C           30.06010265128957       -2.91878765049280        1.85307841951297
C           30.05029654032730       -4.17027919780940        2.63889555810822
C           29.17586767774673       -5.21056196652912        2.31198002932218
C           29.16336231746227       -6.38400459422806        3.04392055851325
C           30.01932231418235       -6.53749227999724        4.13795137171513
N           30.03539914541223       -7.72317175273685        4.85010095781823
C           30.89990571852321       -5.50406186613249        4.46929575554289
C           30.91348428447819       -4.33820490150392        3.72531338378067
C           28.88123933582332       -2.19919124733438        1.71057484094683
C           27.64093484931768       -2.54834094165267        2.33477267761514
C           26.69226816482973       -1.74082298154122        1.80036388222044
N           28.70387607841205       -1.12949145789879        0.86289924351745
C           27.35733028546245       -0.89392448160817        0.86251422058619
C           26.69029219491684       -0.05170252128055       -0.03112392569950
C           27.38431625986400        0.79053893510862       -0.90458717734919
C           26.75191863662851        1.61536940419871       -1.88342234987052
C           27.71511427530398        2.42385718927601       -2.39048641642701
C           28.93009008175706        2.09910952943630       -1.70656206138068
N           28.72527983037143        1.04632494081612       -0.84449356446420
C           30.10427274793952        2.83381404562504       -1.80198363183222
C           30.11793936582820        4.07230765244790       -2.60861949834045
C           29.22086191286012        5.10921068296667       -2.33745075743713
C           29.23339440792548        6.27236814446759       -3.08566272452456
C           30.13786176464814        6.41772844422948       -4.14114136672734
N           30.17901699978040        7.59420058034450       -4.86722805736228
C           31.03999968522445        5.38664190752802       -4.41761375185437
C           31.02891811894653        4.23180077389656       -3.65649165275544
C           31.26673607281003        2.43278795780810       -1.15327943224536
C           32.49224942273412        3.17645241511718       -1.15534557522594
C           33.43616070540040        2.37904838966716       -0.60055135561372
C           32.78430700878138        1.15433980149247       -0.25035140093141
N           31.44124326829771        1.22539768637838       -0.52712430881352
H           34.52739661776886        0.03164725192684        0.19741016341585
H           34.51101233274716       -2.53446443978785        0.79095756944555
H           32.60176839342573       -4.20757075612116        1.70750998163063
H           28.51544719302536       -5.10367535721741        1.45838189889083
H           28.48877598973530       -7.18866258472728        2.77246077368173
H           29.19241227018104       -8.27113314485473        4.78743417480239
H           30.41136575139272       -7.65714158838930        5.78238622419663
H           31.56860559802175       -5.61855875684320        5.31544258702090
H           31.58489513902534       -3.53291517212903        4.00265660528542
H           27.52129119154513       -3.31321514399510        3.08474739823027
H           25.63436163241275       -1.71398506328824        2.00663995276237
H           25.70455607055119        1.57275817435718       -2.13588034647539
H           27.62121750822003        3.17410462385167       -3.15874161211691
H           28.52267566850392        5.00852135138286       -1.51369209239524
H           28.54129525962204        7.07537467151134       -2.85664171986383
H           29.33166327672545        8.13872116832838       -4.84867347400210
H           30.59760302230438        7.51956240871267       -5.78046870309467
H           31.74561930802546        5.49462781420578       -5.23415195642222
H           31.71953431508626        3.42875817668669       -3.88981340377953
H           32.60318943144902        4.17911240457952       -1.53542349428944
H           34.48395154225602        2.58043378899141       -0.44331562225618
C           22.72036759940883       -0.04802828928188       -0.08094404435892
C           21.49156551352716       -0.04115920414824       -0.08442374023032
C           20.14794552609939       -0.03054037092752       -0.08213530425277
C           18.92382290824268       -0.01557989564574       -0.07455725783889
C           24.06396607566823       -0.05159918603951       -0.07036393662916
C           25.28810967864586       -0.05352981867569       -0.05395851799576
