226
 energy: -393.975386211626 gnorm: 0.000585415237 xtb: 6.5.1 (b24c23e)
Zn          37.04825654059744       -0.02081972818317       -0.01926852581670
C           33.63971517199966       -0.05549067687986       -0.04585774074109
C           34.26960315063317       -1.28650580848253        0.09211250520604
C           33.59561929100910       -2.54460183151422        0.25343451564019
C           34.55449461268625       -3.49619973090053        0.37439894566461
C           35.82749707687061       -2.83134691028409        0.27990993556408
N           35.61911979508084       -1.49336063968836        0.11517000444307
C           37.07853159927854       -3.45242273140338        0.37857193735202
C           37.09084816716032       -4.92611507376772        0.54451157207523
C           37.62891011315389       -5.52438585901048        1.68357309225805
C           37.61630403907710       -6.90589279941417        1.79233773855847
N           37.11553969680331       -7.70230659683159        0.85315128577659
C           36.60266692235152       -7.14059547678637       -0.23690052264091
C           36.56531993922587       -5.76926926405474       -0.43408666520363
C           38.31799831766818       -2.80497795276360        0.33186458747161
C           39.59808183561992       -3.45552785368608        0.39052750812727
C           40.54385822037983       -2.48738958946646        0.28855076185715
N           38.51086612375447       -1.45745117285472        0.18505626538756
C           39.85278355900583       -1.23802330172384        0.15776181421341
C           40.48289452102014        0.01173312922918       -0.00321477016471
C           39.83014837153979        1.24960307387332       -0.16428726865641
C           40.49758065749009        2.50487045950106       -0.34877677632871
C           39.53402648357535        3.45466722313642       -0.45761157266681
C           38.26664827760129        2.78854179888839       -0.33373513141659
N           38.48437574914374        1.44733789264724       -0.16630129942175
C           37.01557939075581        3.41160326676014       -0.40354064159946
C           37.00302264140939        4.88669056403097       -0.55459950087740
C           36.43548199236734        5.49923136085777       -1.67146321806876
C           36.45054856660858        6.88190761466078       -1.76562436356336
N           36.98056139371659        7.66632273205988       -0.83257167764577
C           37.52187940869242        7.09101699618711        0.23656658629387
C           37.55902220764229        5.71767292781258        0.41786745619015
C           35.77556717561131        2.76419528095822       -0.34047846694206
C           34.49055475575337        3.41155029143054       -0.37432962857941
C           33.54955787155188        2.43936905837340       -0.27924349219448
C           34.24672992614843        1.18791210053353       -0.17523572860889
N           35.59208116416696        1.41866512541231       -0.21043914919491
H           32.55411109525237       -0.06501277734328       -0.04118632230165
H           32.52448887988755       -2.67063813841866        0.27704112533664
H           34.41723797508909       -4.55469749863904        0.52723530689293
H           38.03757405291841       -4.91472148072803        2.48069829745278
H           38.02583413261326       -7.39394269729886        2.67202874464641
H           36.20387670527004       -7.81683686316403       -0.98752723476784
H           36.14802429372169       -5.35703321177475       -1.34518475008039
H           39.75194790001147       -4.51847583291226        0.48383589259223
H           41.61613547764673       -2.60202720050605        0.29287400776552
H           41.56725947748808        2.63428363622925       -0.39363313663953
H           39.66755916856362        4.51186178526575       -0.62119793682456
H           36.00311102873294        4.90013055522279       -2.46407785989249
H           36.01862559283254        7.38073995508618       -2.62838928060102
H           37.94478035305112        7.75767831661256        0.98255128798024
H           38.00051895794667        5.29388569578529        1.31208823605454
H           34.33322815350814        4.47562355477681       -0.44918471508897
H           32.47636339739941        2.54868145155935       -0.27151170435900
Zn          77.49818013240922        0.03997402083363       -0.02041578843917
C           80.90659311932662        0.05511129951165       -0.06992045691145
C           80.27936568372782        1.27306495288874       -0.30323368758604
C           80.95616940785824        2.52058037423737       -0.52386410582570
C           79.99944217986696        3.46650343357112       -0.69584959920528
C           78.72501575683293        2.80584257136293       -0.59219111151033
N           78.93033275898256        1.47986623428629       -0.34606269308911
C           77.47505029390022        3.42788998543818       -0.69791721688669
C           77.46405152853974        4.88370659179357       -0.98002680793049
C           76.91141084726733        5.79160205506756       -0.07689607049558
C           76.92528386241764        7.14328116708475       -0.38195898765137
N           77.44059810212522        7.62669973384262       -1.50800459631924
C           77.96702917754158        6.76829326110639       -2.37561442804093
C           78.00440222646752        5.40009775168338       -2.15726992012630
C           76.23419297371356        2.79622380552563       -0.55985341145113
C           74.95579267978492        3.43183714619564       -0.72362784099874
C           74.00794481030363        2.48047422908355       -0.52645638140638
N           76.03851302061318        1.47056701463576       -0.27923969399644
C           74.69628215445429        1.25428221930081       -0.24726447336440
C           74.06367315707179        0.02329702692779        0.01695640503068
C           74.71412959661370       -1.19978342714373        0.27353225777798
C           74.04349216256652       -2.44498604188828        0.50764871393267
C           75.00491773994979       -3.38641649810170        0.68581696489444
C           76.27434865401682       -2.72271656838990        0.57066252489182
N           76.05955838482997       -1.39505721187848        0.31367843407806
C           77.52403897574501       -3.34462354462947        0.66874333460775
C           77.53477279666662       -4.79781975114658        0.96399026886390
C           78.07833292253368       -5.71639834760906        0.06641548155296
C           78.06132977451665       -7.06512368712508        0.38488922106243
N           77.55137120219962       -7.53575005202453        1.51858952882524
C           77.03366963290736       -6.66699403787603        2.38129977989166
C           77.00054766424448       -5.30102412924921        2.14994874559848
C           78.76496992926860       -2.71519063218023        0.51140840013478
C           80.04892093399563       -3.34903905841062        0.65682112613051
C           80.99184210074614       -2.39689530478353        0.44708463273257
C           80.29703871313224       -1.16848791477029        0.18011625263577
N           78.95116986302310       -1.39356354002157        0.22931147525928
H           81.99222051062047        0.06239570797660       -0.07272109373427
H           82.02755740784315        2.64605108250695       -0.53595362177762
H           80.13912432418259        4.52197641863521       -0.86634154042686
H           76.49042673971370        5.44433457463234        0.85922660204733
H           76.50480937378325        7.86911015738111        0.30807826532482
H           78.37708638393958        7.19267091577307       -3.28748354722894
H           78.43290545810859        4.73746176414911       -2.89986320730202
H           74.80462194484365        4.47011828378711       -0.97133148562534
H           72.93604959962823        2.59060018325895       -0.56960153561231
H           72.97318117311042       -2.57586118588246        0.52409996909230
H           74.86804836553301       -4.44055780564774        0.86547344793640
H           78.49355627194483       -5.38064812685817       -0.87645759109509
H           78.47445183989599       -7.79908527736926       -0.30095137653697
H           76.62702642933496       -7.08108033415903        3.29940914464575
H           76.57886316419943       -4.62945814561240        2.88838921035579
H           80.20427118906733       -4.38765342390509        0.90129624455047
H           82.06495748028539       -2.50356535089819        0.47531030597041
C           43.11171739461389        0.02668784913469       -0.02167431589196
C           41.89000319559708        0.02166887395474       -0.01384029285174
C           44.46218245753428        0.03036181229395       -0.03017931243531
C           45.68407113602450        0.02916862694952       -0.03705265135069
C           56.59931128462608        0.01724534249831       -0.02866316181579
C           55.37672613735693        0.01904203502372       -0.03045474236747
C           57.94841468222265        0.01273922735515       -0.02735344838919
C           59.17100578775777        0.00637744139696       -0.02701198675351
C           70.08501698540832        0.00155472521331        0.00194003765810
C           68.86300256248087        0.00231140547982       -0.00249894166267
C           71.43510202889983        0.00690731565921        0.00977670461364
C           72.65700526428913        0.01356719687538        0.01299381596325
Zn          50.53028030459981        0.02009009445557       -0.04010848923754
C           47.09072678968969        0.02568704662261       -0.03996305065331
C           47.73208651418147       -0.88599534353812        0.82194882198824
C           47.05277182629268       -1.77906575009362        1.71349365341730
C           48.00761959511040       -2.47997328160749        2.37699786166980
C           49.28019982346418       -2.02687982354103        1.88907301684616
N           49.07594376149588       -1.05265171451377        0.94933312474269
C           50.52608387453331       -2.48733632977058        2.32894013118830
C           50.52461985913131       -3.56126765908645        3.35228395186921
C           49.97913988266811       -4.81669676513216        3.08645865740406
C           50.00366102306680       -5.78762234458588        4.07515638907914
N           50.52202675077042       -5.58048622055239        5.28147418399775
C           51.04177463739077       -4.38564707058342        5.54411436066595
C           51.06882196515225       -3.35382464624917        4.61927076625716
C           51.77330159364993       -2.02627158371601        1.89433608026593
C           53.04389085582570       -2.54320961458485        2.31989979743893
C           54.00152389870342       -1.84329597044555        1.65921451526286
N           51.98177124253890       -1.03277093381495        0.97539416392363
C           53.32583312028690       -0.89925911491598        0.81908917070531
C           53.97174359574882        0.01984203598465       -0.03274199583326
C           53.32909162292869        0.93808987930488       -0.88791500903664
C           54.00782713334655        1.88112364251799       -1.72660405202186
C           53.05271096142907        2.57783083155858       -2.39430218677918
C           51.78054693810754        2.06027581038156       -1.97413270795940
N           51.98558833127342        1.06999009121771       -1.05102378179484
C           50.53502142470736        2.51825970763914       -2.41731518143902
C           50.53944001983297        3.58203807827061       -3.45108229298152
C           51.09590644610514        3.36146877513546       -4.71066928931596
C           51.07624471917863        4.38268016383075       -5.64724810115012
N           50.55201476008133        5.57949951295981       -5.40296075440257
C           50.02171694811544        5.79909072680763       -4.20410865836753
C           49.98944093964447        4.83938483377213       -3.20462672004624
C           49.28728976386525        2.06206101335401       -1.97810119517862
C           48.01622220921558        2.51485884820652       -2.47027827848686
C           47.05897342281671        1.82175034491711       -1.80201142448745
C           47.73522706645701        0.93232088865774       -0.90461446564697
N           49.07967846554969        1.09425727580875       -1.03229723845425
H           45.98188534050337       -1.84992991343616        1.81879625818971
H           47.86416155176522       -3.22966956642863        3.13829445833676
H           49.55573840806980       -5.03456361457291        2.11315305888326
H           49.58923706427873       -6.77434569632011        3.88986478518409
H           51.45520356990336       -4.24589549372043        6.53872158060386
H           51.49330168156944       -2.39203964800053        4.88173439887896
H           53.18392004577225       -3.34701044307894        3.02452661982217
H           55.07203481590644       -1.95555549756630        1.72497925534230
H           55.07850518232496        1.99489774165934       -1.78684892469017
H           53.19542906246845        3.38047541539311       -3.09969221566642
H           51.52442009177590        2.39747118365947       -4.95804612188320
H           51.49970837442628        4.23259075582565       -6.63610816447402
H           49.60390675485893        6.78710055563539       -4.03389774613298
H           49.55691724995645        5.06799743534544       -2.23782701633786
H           47.87512089656072        3.25912553092302       -3.23732456291006
H           45.98831192065412        1.89470590116509       -1.90830272702874
Zn          64.01649173936065       -0.00370953935569       -0.02375637733479
C           60.57595494716430        0.00166555707042       -0.02716804803218
C           61.21780526112568       -0.89248696594984        0.85380001636651
C           60.53855213415179       -1.76770986333024        1.76265384589303
C           61.49302342835007       -2.46945456829805        2.42602616238057
C           62.76517177937650       -2.03467493426217        1.92071947655676
N           62.56095004977190       -1.06751661278625        0.97312835995429
C           64.01029862042763       -2.50942111040623        2.34685805223636
C           64.00715241953874       -3.58292485752716        3.37043610365847
C           63.43557340946182       -4.82861487148732        3.11347494052758
C           63.45663638209817       -5.79927626001014        4.10246773352962
N           63.99583900531950       -5.60084787166053        5.30111159349785
C           64.54141248246965       -4.41566552831612        5.55502999650440
C           64.57392800284821       -3.38500399432696        4.62907881856291
C           65.25803928501369       -2.06252086079924        1.89817384442950
C           66.52767568157329       -2.59406489362569        2.30831815795030
C           67.48577523345209       -1.89483993112180        1.64754375839766
N           65.46691272724975       -1.06388240193897        0.98545853191042
C           66.81114319192517       -0.93686396282094        0.82241425312888
C           67.45691557294111       -0.00140610292318       -0.01040536614725
C           66.81583494782134        0.93119886501614       -0.85013838736515
C           67.49497242180477        1.88841875949313       -1.67238675641813
C           66.54076710265626        2.58321795638756       -2.34340421314496
C           65.26897756580674        2.05056956192021       -1.94146729006487
N           65.47262846367744        1.05485536157357       -1.02443003876025
C           64.02392405002455        2.49603477420194       -2.39904987032496
C           64.02756355110338        3.56572351731911       -3.42660202320068
C           64.60233570847303        3.36239374950018       -4.68077937284284
C           64.57724001182815        4.38962174548567       -5.61075700555056
N           64.03158292438010        5.57641552364722       -5.36475357408187
C           63.48469977869486        5.77986592425043       -4.17052936961649
C           63.45577942591816        4.81296979027592       -3.17801867214217
C           62.77626737001366        2.02484930627160       -1.97648714700562
C           61.50668575140758        2.46209685790007       -2.48599456479088
C           60.54843324274461        1.76646494009097       -1.82163461566219
C           61.22281211460919        0.89154148221104       -0.90887773062958
N           62.56677922831104        1.06123534084959       -1.02632959490829
H           59.46803114759330       -1.82762711365880        1.87808670474849
H           61.34981177233708       -3.20830333321876        3.19789089492649
H           62.99433826341449       -5.03919127027505        2.14649492090633
H           63.02140224490351       -6.77824559620749        3.92394595065446
H           64.97153061302720       -4.28305372981094        6.54354632207999
H           65.01954212175714       -2.43096888989869        4.88470212483430
H           66.66687605942938       -3.40589607824005        3.00386640415169
H           68.55589852476420       -2.01538512484959        1.70454617915395
H           68.56523966542480        2.01126140829111       -1.72118544645343
H           66.68380954978028        3.39313054069299       -3.04040345122603
H           65.04861423689127        2.40687931598987       -4.92966255003561
H           65.01427072885971        4.25305483794764       -6.59570144108118
H           63.04946313565924        6.76010191155666       -3.99840125502914
H           63.00851813560327        5.02787568991705       -2.21476887961661
H           61.36744924339051        3.19862472689442       -3.26079464421707
H           59.47835358438125        1.82999917606874       -1.93915267270907
