210
 energy: -321.360471792840 gnorm: 0.000536299973 xtb: 6.5.1 (b24c23e)
C           29.36291014022971        0.07049496034537        0.05003420421903
C           29.97022901965316        1.27653158950787        0.37479257545187
C           29.31899643598130        2.48835289350380        0.73947703703000
C           30.28134084042541        3.43072677560127        0.97004419829796
C           31.55165881110691        2.82779875104706        0.74346355055004
N           31.31304444697568        1.52801396731432        0.39659605631425
C           32.81284090418671        3.42111178986712        0.86212495824023
C           34.03051601889653        2.76770315193207        0.65907804557918
C           35.32253782112409        3.42524579473596        0.73527894342812
C           36.24936008364376        2.47668715839263        0.48775281369025
N           34.19403781200828        1.45157031159262        0.35112109032006
C           35.52336901382263        1.24398906749450        0.25078813493376
C           36.16576654639847        0.01841616656515       -0.01411349574643
C           35.53270911014526       -1.21232574971111       -0.26864261410611
C           36.17644689444542       -2.45152841027518       -0.52661011336611
C           35.20970936422991       -3.39115671761439       -0.75592611495880
C           33.94354584371062       -2.75111493011275       -0.65563797115055
C           32.68318134370725       -3.33577108428964       -0.81890059832185
C           32.65509638882124       -4.77316931274810       -1.18644689065461
C           32.05259158299429       -5.70384559088883       -0.34079704236971
C           32.02189326691137       -7.05186487232772       -0.68084765832674
C           31.35634883416164       -8.04983091329636        0.22793254858506
C           32.59472445984598       -7.46629648623200       -1.87974793574424
C           33.19983527004899       -6.54993138552363       -2.73452373174423
C           33.79644254468906       -7.00510127169180       -4.03907584273300
C           33.22865526260296       -5.20491453921085       -2.38180092091840
C           31.46410759197436       -2.66772297008004       -0.66764664851159
C           30.16339827211903       -3.27972765954310       -0.89131598156870
C           29.24392107391188       -2.32519055855263       -0.64377799513932
C           29.98173819598968       -1.12803086056074       -0.28112508680521
N           31.31518081652722       -1.36874201654489       -0.31430287234846
N           34.19054508418172       -1.43891166135845       -0.34907023832165
C           32.83817899751094        4.85829933330133        1.23410193169748
C           33.43419346595351        5.26476950310579        2.42618995869327
C           33.45151084700265        6.60901653857714        2.78586107435474
C           34.10481226057377        7.03408089583609        4.07327341340746
C           32.87340148919402        7.54863328422955        1.93901319570453
C           32.27572528120229        7.15851183638776        0.74348049236165
C           31.67348771444525        8.18787974258932       -0.17457468797434
C           32.25862834859316        5.81210317059644        0.39767565477414
H           28.27757937389174        0.07438071851940        0.05770552392171
H           28.25012667987389        2.60827123135916        0.81780654573718
H           30.13154216473508        4.45307407272760        1.27734818094945
H           32.03704844527635        0.84838704806837        0.18909502093288
H           35.47672192046887        4.47237165235922        0.93986777337357
H           37.32227801389222        2.57832119517804        0.46161149425909
H           37.24445683146693       -2.59777717495541       -0.53407711243224
H           35.35705801188756       -4.43727808311020       -0.96949670670153
H           31.62243619144474       -5.37103891413156        0.59750315781907
H           30.31346221969541       -8.18303476480193       -0.06891088333353
H           31.85144859337162       -9.01942802717484        0.16884565001838
H           31.37362642779718       -7.70628027842444        1.26233220083699
H           32.57165543363285       -8.51712168035334       -2.14973992415427
H           34.61496186145485       -6.35150527260021       -4.34127881884615
H           34.16996596663972       -8.02631683812555       -3.96005574488510
H           33.03577722274321       -6.98153333498027       -4.82285292695501
H           33.68481331075482       -4.47995717787751       -3.04721992533730
H           30.00150056414815       -4.29804727142484       -1.20642500225989
H           28.16863246519498       -2.39156347263350       -0.70134560653800
H           33.46925405186208       -0.73992807227508       -0.20487668483275
H           33.87036451692024        4.52197419848005        3.08507371130546
H           33.85007827305144        6.34536071649753        4.87969712457934
H           33.79292779776070        8.03927701764408        4.35658095863707
H           35.19094803491779        7.03121683864107        3.95817813347797
H           32.88487837865041        8.59844195553151        2.21372503896465
H           31.23007899651099        9.00429478978046        0.39627182460801
H           32.44842814756585        8.60784327049655       -0.82003556014000
H           30.90674410606757        7.74302074751375       -0.80903068766805
H           31.80617399141022        5.49776531347594       -0.53660060646508
C           57.92511955213545       -0.07788680503583        0.01341630876807
C           57.32395413680828       -1.29784737896783       -0.26763395547596
C           57.98137117855064       -2.53516815028107       -0.51750773521004
C           57.02387127657430       -3.47853379926886       -0.76352481474953
C           55.75042095268759       -2.84594883273461       -0.68056283244865
N           55.98235513845789       -1.53606916493133       -0.36916784371260
C           54.49260791359688       -3.43001583535693       -0.86398170941165
C           53.27099693342630       -2.76585447737447       -0.73053719794983
C           51.98331584922401       -3.38306655545796       -0.99200091486039
C           51.05119831217838       -2.43603705346744       -0.75890419070444
N           53.09979044449485       -1.46527793350377       -0.36587586813304
C           51.76949554309222       -1.24037143467017       -0.36282252853043
C           51.12031591711738       -0.03199252106014       -0.04128360635502
C           51.74699144060033        1.18526241228230        0.28395827762247
C           51.09765443666225        2.39438540502884        0.64827065497575
C           52.05986925648935        3.33630880492896        0.88729711902172
C           53.32885263617160        2.73168716118484        0.67075382130882
C           54.58663482496326        3.32721570794481        0.81465841553252
C           54.60706706232519        4.76534234424082        1.17924464031488
C           55.20047094598741        5.17941666185131        2.37122676148573
C           55.22063550340366        6.52520657313895        2.72070621244449
C           55.87461504996469        6.96800212804283        4.00175318588517
C           54.64684062462797        7.46087189863445        1.86488913672598
C           54.05130230630921        7.06380167939429        0.67141140361736
C           53.45307221716065        8.08616404258155       -0.25697089019201
C           54.03262238787959        5.71457935825172        0.33470727089338
C           55.80918167940318        2.67040257947751        0.64382824598938
C           57.10695484594596        3.31984767227358        0.74606949330242
C           58.03156699414641        2.36391643039840        0.52435286096223
C           57.29990047832715        1.13412708544603        0.27662498744947
N           55.96504891902756        1.35808822615155        0.34714254176994
N           53.08801058560551        1.43057300246494        0.31588942955760
C           54.47558567282100       -4.86673872495319       -1.23685205050647
C           53.86961610490301       -5.80411533716506       -0.40272374156807
C           53.85724284842144       -7.15270019385902       -0.74592752787912
C           53.19096895982482       -8.15251967178312        0.16034775550087
C           54.45132660887173       -7.55886971113284       -1.93606285203586
C           55.05982678553794       -6.63426978632578       -2.78077124386499
C           55.67965866947138       -7.08292003264089       -4.07678407851104
C           55.07088212799727       -5.29048632503510       -2.42495518139584
H           59.01040960349209       -0.08066228901321        0.02430594399688
H           59.05084070548952       -2.67305302180900       -0.50284123547124
H           57.17892919769728       -4.52388671362801       -0.97625463957057
H           55.25523766538012       -0.84218081047832       -0.23147255316424
H           51.83537568921789       -4.39800606727004       -1.32379295692809
H           49.98015781018582       -2.51148940805695       -0.85538024240017
H           50.02956909884226        2.51705423338404        0.72710390208079
H           51.90767994119608        4.35699279550731        1.19828868537820
H           55.63104719706173        4.43954205893654        3.03708565931360
H           56.91566388465806        7.23934428973193        3.81183846823115
H           55.36762486127176        7.84027567517243        4.41510042495532
H           55.86191100080166        6.16783879535094        4.74193440408080
H           54.66118162500806        8.51231003476059        2.13309141477808
H           52.65396076344705        7.64782988687708       -0.85507331167270
H           53.05268018593252        8.93167868921518        0.30293459734241
H           54.22000200227556        8.46268171061276       -0.93778806706493
H           53.58339547771403        5.39536769449080       -0.59951155528388
H           57.26362628022247        4.36745489268610        0.94727413668505
H           59.10670924374686        2.45298918241516        0.51451084279880
H           53.81251420645550        0.74777305656856        0.11974306782431
H           53.42138219686676       -5.47813026108571        0.52943739384045
H           53.42949025661229       -7.94473410805793        1.20412421040680
H           53.50720061842683       -9.16792623282963       -0.07815860737726
H           52.10642458139405       -8.09456313765750        0.04450106751384
H           54.44361343387925       -8.60909443771393       -2.20926173557932
H           56.11582569198934       -8.07703154249162       -3.97443728756577
H           54.91656172902869       -7.12651160216287       -4.85737583614945
H           56.45550694099224       -6.38794729948014       -4.39842539448903
H           55.53043603486154       -4.55952464138362       -3.08143306033834
C           37.57609470899418        0.00737548091634       -0.02766173155023
C           38.79291197549205       -0.00277377163075       -0.04084557624162
C           48.49288890077992       -0.02713914613018       -0.04118871367889
C           49.70987277046179       -0.02553056946485       -0.04434153156911
C           40.20252737149873       -0.01137712623900       -0.05021243489202
C           40.82609360376870       -1.20502245305818        0.35794899018536
C           40.17973716362107       -2.38037380093736        0.82053483459338
C           41.14495092244255       -3.30280545267801        1.11961899274084
C           42.41078124677476       -2.71875082503812        0.84165032010843
N           42.16733303422353       -1.44876189130106        0.39117018728481
C           43.66878956599713       -3.30871817116515        1.01172417274719
C           44.89714544774466       -2.68983977236536        0.77544749267676
C           46.17712713295990       -3.36140872653906        0.91349950582856
C           47.12293728374893       -2.44625644060066        0.61722365099226
N           45.08638430148074       -1.40007577882498        0.38301272192640
C           46.42064467376000       -1.22134286273773        0.28983491092509
C           47.08321871184523       -0.02401696864491       -0.04324671882738
C           46.45891947728860        1.19078757073330       -0.38296659159385
C           47.10586404408073        2.40842540466344       -0.71768917461909
C           46.14069525430389        3.32960550684621       -1.02072264506496
C           44.87440537180709        2.69720419536179       -0.88973791186027
C           43.61721312472282        3.26974724526914       -1.11705786300668
C           43.61126555792291        4.67478536904087       -1.59828817095519
C           43.01772139024913        5.67936861744297       -0.83454017410660
C           43.00660637910088        6.99466411414932       -1.28445359713994
C           42.38399951513895        8.08123367299091       -0.44989409139364
C           43.59301238380661        7.30232719988330       -2.50933617100506
C           44.18643815325657        6.31115442577110       -3.28396482141065
C           44.82947132281209        6.65148767930468       -4.60139148826744
C           44.19591442262037        4.99902541846643       -2.82122664459349
C           42.38837604934397        2.63225129902534       -0.94053643733174
C           41.10927911721473        3.24701894684902       -1.24789029823994
C           40.16351769757839        2.33407845691663       -0.94467555301023
C           40.86523261377017        1.16111025300206       -0.46226206435940
N           42.19884550878320        1.36436417726431       -0.48199728994838
N           45.11735702855123        1.41012080624270       -0.49022074834341
C           43.67716163187690       -4.71402013315670        1.49248663347164
C           43.10637132122542       -5.72561444689818        0.72232726914621
C           43.11668557829852       -7.04383184490096        1.16736654412837
C           42.49026493829888       -8.12767244130654        0.33195077097185
C           43.69478727545977       -7.34382499562853        2.39652802817580
C           44.26622753345476       -6.34390765929356        3.17879067390369
C           44.86949273542546       -6.67872210401777        4.51619249503156
C           44.25633430276348       -5.03130689310975        2.72069886230458
H           39.11251119280958       -2.49476650753731        0.92060538483611
H           40.99600455048557       -4.29675153886819        1.50892402733951
H           42.88707289557274       -0.78191268203826        0.13330418341621
H           46.31136177582574       -4.39502351999421        1.18844157363142
H           48.19432447497922       -2.56563685897024        0.61367220660719
H           48.17393237440753        2.55387320918661       -0.72518858296581
H           46.29041743593093        4.35851405838241       -1.30457318492543
H           42.57336538835360        5.42870016733472        0.12241878872141
H           43.15697855552587        8.59941181525207        0.12224801552860
H           41.88325662669045        8.81503002964050       -1.08228897354217
H           41.66006825013519        7.66723694751544        0.25196644690067
H           43.58259251542336        8.32747358504384       -2.86521147661507
H           44.69283913556513        5.84214774382341       -5.31916826713747
H           45.90243283410290        6.80289510099844       -4.46255068855120
H           44.40726844616807        7.56676350800123       -5.01635695961042
H           44.64178734273818        4.21539149999207       -3.42415622302337
H           40.97537296117736        4.23662862794350       -1.65371137627319
H           39.09339065465426        2.41724093553543       -1.04540156525993
H           44.39779563366000        0.71929601544690       -0.30500277801798
H           42.67068338479881       -5.48206704397463       -0.24060527981877
H           42.91857333747948       -9.10098120041887        0.57163191422696
H           42.63513992936530       -7.92976432075502       -0.73047855943235
H           41.41581394508648       -8.17087576336964        0.52471591268901
H           43.70431744311674       -8.37022805196417        2.74877949374062
H           45.62606698956308       -5.94576758595305        4.79653535144602
H           45.32568213003474       -7.66888537608869        4.49864618853729
H           44.09263361485169       -6.67730238597135        5.28428577390125
H           44.68984009794221       -4.24191093879045        3.32484495688891
