288
 energy: -495.543126230425 gnorm: 0.000521891824 xtb: 6.5.1 (b24c23e)
C           49.63512424025514        0.05278591315073        0.03511020824817
C           50.24376884699110        1.28153659862459        0.25564113741922
C           49.59122877726875        2.53080287839441        0.45368177605658
C           50.55282644860765        3.48413979944008        0.63620472436730
C           51.82422632539177        2.84588908794526        0.56613207450747
N           51.58692668390884        1.52224579777999        0.32690804563722
C           53.08752402659410        3.43589047078956        0.68773553892376
C           53.11716072860070        4.89145578579377        0.96449942092274
C           53.72513428639068        5.78452833196040        0.08266639013473
C           53.72362336203375        7.13755421486248        0.38256419998847
N           53.16818300864940        7.63527272937311        1.48283655632312
C           52.58882518087836        6.79096145083087        2.33012152467021
C           52.53572254766452        5.42273737038529        2.11543740252604
C           54.30411325868673        2.75932942217148        0.57110229227342
C           55.60121317967734        3.38406731013166        0.76018760708320
C           56.52223401917327        2.41610103533348        0.57476189101635
N           54.45907337968935        1.43507206447593        0.29527375872473
C           55.78668251081405        1.20068176838437        0.28279912048570
C           56.42410806399849       -0.03128071969841        0.03220610816780
C           55.78978372820086       -1.26209233915349       -0.22095130896623
C           56.43550683958801       -2.49509123555541       -0.50300111874921
C           55.46927389702953       -3.44398168723791       -0.69195670513988
C           54.20250286526944       -2.81973404961590       -0.52140443931768
N           54.44829201082422       -1.50070103418229       -0.24557163668049
C           52.94024533941214       -3.41101025749806       -0.63868253256790
C           52.90909365902193       -4.86330146729977       -0.93031814421807
C           53.47278587827154       -5.79150601369472       -0.05532118616612
C           53.41742764626220       -7.13963240824186       -0.37211528527333
N           52.85329825323252       -7.59996027582176       -1.48402399067107
C           52.31548337642526       -6.72191333918019       -2.32463883419984
C           52.31607963444829       -5.35563749078600       -2.09257168849634
C           51.72286342472461       -2.73619036092602       -0.50044903275901
C           50.41887025256732       -3.37733970786512       -0.57142260129362
C           49.50455549854500       -2.40516943721670       -0.38134216430001
C           50.24869694539124       -1.17315107090762       -0.18575266769553
N           51.58127019268837       -1.41197943056764       -0.25625117729428
H           48.54980187257193        0.06139099440670        0.03620252867794
H           48.52189187996257        2.66950808743571        0.44820583336506
H           50.40089526772746        4.53914959663937        0.79654270830115
H           52.31262722949426        0.82231670640443        0.21416386145614
H           54.17866991185391        5.42577583363680       -0.83356127321846
H           54.18773957772790        7.85227689332253       -0.29074023544879
H           52.14682582358807        7.22687660077818        3.22134396795037
H           52.06479639813442        4.77155020754273        2.84230875542256
H           55.76324079569377        4.41875425556468        1.01507380038332
H           57.59638279196400        2.48941238522615        0.63305679572391
H           57.50393506327774       -2.62763309172300       -0.55910936008013
H           55.61756452330300       -4.48276791356415       -0.93786737963610
H           53.72564519873026       -0.80515204304483       -0.09173944261727
H           53.93181292827677       -5.46377585752981        0.86988344915030
H           53.84496824911295       -7.88123273072919        0.29636910509694
H           51.86421246140672       -7.12829414212444       -3.22509195227476
H           51.87674341500479       -4.67611049374395       -2.81306523339551
H           50.25170398125854       -4.43025557079149       -0.73168937785847
H           48.42885320100204       -2.48368871801386       -0.36252412928042
C          110.20714684353304       -0.06176062774376        0.02367466566436
C          109.59538518269933       -1.25948068025999       -0.32291403449162
C          110.24426287207940       -2.46795255983556       -0.70270586301849
C          109.28012438800549       -3.40316679909762       -0.95310532622242
C          108.01085932151852       -2.79931047559343       -0.72275225360752
N          108.25178110870978       -1.50579130762480       -0.35614221138915
C          106.74597786401776       -3.38367739003152       -0.85464004549288
C          106.71037250015563       -4.81242799517733       -1.24580517000714
C          106.07867536519343       -5.22464427737190       -2.41895022143285
C          106.07551776415627       -6.57067774590752       -2.74842557828001
N          106.64813469049948       -7.50275121416457       -1.99326161944507
C          107.24961802758259       -7.11922879609596       -0.87188100430770
C          107.30910514076992       -5.79703656779006       -0.46034642574294
C          105.53182346929782       -2.72445878395245       -0.64717824702347
C          104.23443829487844       -3.37236328434612       -0.72097623296295
C          103.31566469660639       -2.41789376314664       -0.46679496273117
N          105.37975134335916       -1.40855806612989       -0.33285605991695
C          104.05300218869139       -1.19155396685627       -0.23065275167311
C          103.41789959036650        0.03683227824568        0.04288497243429
C          104.05577777136168        1.26108870408186        0.31840370016700
C          103.41455808874774        2.50234827063710        0.57266139120257
C          104.38346689710808        3.43460057256418        0.82186673776041
C          105.64719934928954        2.78747347919274        0.73479840740966
N          105.39744850744506        1.47860886983165        0.41751506672343
C          106.91065013885715        3.36158361443195        0.91124737435314
C          106.94475059382479        4.79389435418250        1.28820967984662
C          106.35672221294031        5.24595995403862        2.46934424047326
C          106.41721155571516        6.59482901759694        2.78179365755272
N          107.00854827449849        7.49339848834627        2.00113964609437
C          107.56912961620593        7.07160335190363        0.87212351190132
C          107.56564352909362        5.74326081707179        0.47699636979092
C          108.12613271037350        2.68575998709457        0.76148500888310
C          109.43085610550872        3.28432543336091        0.99809439345435
C          110.34280548749075        2.32386705571714        0.74686862075550
C          109.59631708208127        1.13680413147876        0.36808805430888
N          108.26468692136611        1.38895094952847        0.39758113243586
H          111.29244124986768       -0.07283114245748        0.02173573330788
H          111.31297825448954       -2.59058587111503       -0.77729304273868
H          109.42910642254699       -4.42035838415157       -1.27707465627546
H          107.52808928670848       -0.82753722527734       -0.14288102687354
H          105.61049798557485       -4.49829448838716       -3.07250056823138
H          105.59336548149592       -6.91461659963939       -3.65882200701481
H          107.70481372047794       -7.90369597310852       -0.27433919453906
H          107.79821854223630       -5.53401879214170        0.47010033644931
H          104.07110080465151       -4.41823945213272       -0.92415379344099
H          102.24205395167483       -2.51035509199918       -0.42967894327550
H          102.34722936203201        2.65375822566544        0.55997338975327
H          104.23917140344949        4.48061308657800        1.03773210721876
H          106.11757630855487        0.77792586344145        0.27568091748288
H          105.87503305389764        4.54776241759347        3.14361309522104
H          105.97127536381909        6.96908849036326        3.69869877588266
H          108.04225985868698        7.82951994735575        0.25462366770022
H          108.02442078478502        5.44765972050964       -0.45895931038166
H          109.60014134872421        4.29797487549734        1.32383737685764
H          111.41819172073150        2.38000962053196        0.81051743989437
C           59.05246216079356       -0.06043938628553        0.03139306920466
C           57.83036708225854       -0.04645742097921        0.03236778879231
C           60.40180771803382       -0.06620150226556        0.03011063495973
C           61.62409766785917       -0.06499071801002        0.02954156959322
C           72.51593444652076       -0.00339342148136        0.00870276291392
C           71.29329395903527       -0.00949903633997        0.02111712302556
C           73.86399023834674       -0.00220261501377       -0.00775718296712
C           75.08658910016490       -0.00146530649053       -0.02600859586720
C           85.97685541192638        0.00580441553793       -0.03294503082123
C           84.75412197482704        0.00006641462455       -0.04286911092454
C           87.32505240083209        0.00923375790543       -0.02168423220743
C           88.54778944629692        0.01666026408034       -0.01379663910735
C           99.44042514520108        0.07160817525158        0.03573490785781
C           98.21807803446785        0.06687177306484        0.02991032931934
C          100.78966585414507        0.06699903419632        0.04097221465714
C          102.01186093700993        0.05429322317704        0.04283592178010
C           63.02946859383970       -0.05914082275666        0.02933018184447
C           63.66140949487018       -1.29363314571797        0.27286817731500
C           63.01800278118515       -2.52839175436902        0.54559466967224
C           63.98723354216597       -3.47805805892583        0.72121249162476
C           65.25124435473386       -2.85051066257094        0.55149904122744
N           65.00365443564701       -1.52964262526620        0.29030155473853
C           66.51418342762533       -3.44682987695383        0.65249641487601
C           66.53383957100915       -4.90536790122011        0.91959174209134
C           67.11018931542843       -5.42158200761457        2.07953612612265
C           67.10119926390921       -6.79202751721509        2.28611540936985
N           66.56900576852159       -7.65129865900503        1.42295402921213
C           66.02044969272151       -7.16776814752372        0.31317310039712
C           65.97573294127911       -5.81368221064001        0.02079664987031
C           67.73694037663510       -2.78794703459079        0.51998455264783
C           69.02573537459313       -3.45450930521600        0.57499179220866
C           69.95920629907638       -2.49641150197506        0.40027470281111
N           67.90871660989849       -1.45504398891840        0.29913133269082
C           69.23901225896465       -1.24959081940593        0.23122127190848
C           69.88918019961537       -0.01517951504230        0.02918605227096
C           69.25683643911336        1.22705672816225       -0.17246197071786
C           69.90029523130083        2.47903234595653       -0.35024272716209
C           68.93120328124596        3.42880984570612       -0.52559715447186
C           67.66733119150298        2.78084787523881       -0.46835228270737
N           67.91499664025149        1.45304046430301       -0.24379135629839
C           66.40465816151743        3.37263491534589       -0.59231641857472
C           66.38499598891853        4.83067893847214       -0.86199264762477
C           65.80295807032905        5.72547466225121        0.03508457239562
C           65.81184515787464        7.07960875174901       -0.25992834086821
N           66.34951114002941        7.57574962502774       -1.36964082555423
C           66.90394827670730        6.72942401182939       -2.23134145513329
C           66.94899423506673        5.35997053843845       -2.02219307293581
C           65.18179120387538        2.70829799922699       -0.48722773140635
C           63.89319900557703        3.35065170627679       -0.67530065104854
C           62.95953922677468        2.39318571531426       -0.49875822512876
C           63.67929374605452        1.16751734538229       -0.21321384340296
N           65.01013901794768        1.38410882659876       -0.22104973097297
H           61.95000643679633       -2.66284929024190        0.60450310934057
H           63.84155754217916       -4.51950416786921        0.95707306057960
H           65.72112664988450       -0.82839393510216        0.13945919722769
H           67.54543899459291       -4.75754192418271        2.81672279875598
H           67.53945422464722       -7.21740873564849        3.18417434641812
H           65.59763760654155       -7.89466088865290       -0.37416270928599
H           65.52886261278876       -5.46597908852156       -0.90304972799244
H           69.17387785688024       -4.51300719764725        0.71443039387786
H           71.03240995331107       -2.59804860993876        0.37695613560288
H           70.96815211829528        2.62622931189891       -0.33837071746143
H           69.07684905846828        4.48645972324245       -0.67261767662559
H           67.19759408541037        0.74296255964368       -0.14195002279690
H           65.36349715769256        5.36690695477732        0.95818047652417
H           65.36925729937272        7.79643476041134        0.42547899963585
H           67.33102284103623        7.16433876957188       -3.13024037344828
H           67.40060115958914        4.70664783706263       -2.75929466290958
H           63.74547558433120        4.38940042806716       -0.92214225036353
H           61.88649883138304        2.47980888715562       -0.55881520847653
C           76.49059013014070       -0.00451254241538       -0.04202049675891
C           77.11628278242289       -1.23858645376236        0.22156681291597
C           76.46629375319731       -2.46443912239112        0.51750446198946
C           77.42994752843951       -3.42016456138904        0.69105912108951
C           78.69669577034506       -2.80500789767827        0.49835409426614
N           78.45648865923475       -1.48494656452060        0.22582352406621
C           79.95589620875370       -3.41053219949622        0.59033869032325
C           79.96591596091532       -4.86736907457152        0.86660768078537
C           80.55068537089957       -5.38162268545119        2.02322967768736
C           80.53081002704025       -6.75058528478591        2.23891726975607
N           79.98009165388559       -7.61014881705321        1.38775621855447
C           79.42282325280985       -7.12850457147340        0.28149163396015
C           79.38800297506458       -5.77596826354388       -0.01937756413201
C           81.18230260526447       -2.76105933076890        0.44487393140739
C           82.46715590786445       -3.43505646628890        0.49910849577324
C           83.40605188117334       -2.48256507521532        0.32227359341097
N           81.36147241065949       -1.43003666207709        0.21849536296265
C           82.69297588221551       -1.23215544045365        0.15032814848400
C           83.34997103398074       -0.00150741065424       -0.05297563803539
C           82.72421629106309        1.24144773584008       -0.27129528266757
C           83.37415728723964        2.48859238052981       -0.45818416746773
C           82.41042679874289        3.43993491816471       -0.65416999923185
C           81.14355227383389        2.79780505758409       -0.60034849310046
N           81.38385500075155        1.47194659597357       -0.35733034015437
C           79.88422718764294        3.39359038300443       -0.74237454316390
C           79.87271201161975        4.84719719058818       -1.03424101328222
C           79.27905854825951        5.75665691609579       -0.15964565944854
C           79.29547857269355        7.10625562480872       -0.47452825062533
N           79.85130488615933        7.58475504455209       -1.58300669646222
C           80.41692731671573        6.72450777867767       -2.42349967354857
C           80.45571177129143        5.35824761130014       -2.19336481621258
C           78.65780280453711        2.73705773947959       -0.63175041582135
C           77.37271480110786        3.38103302684422       -0.83687819714474
C           76.43395411862568        2.43294845068913       -0.63713582576336
C           77.14733381717932        1.21101018875830       -0.32202609160570
N           78.47886461099492        1.41971453663519       -0.33605783958318
H           75.39807832032871       -2.58960301385640        0.59064618902667
H           77.27874578967437       -4.45776639412070        0.93996589826059
H           79.17732161851823       -0.79123298537870        0.05732717221196
H           81.00031392131119       -4.71700762166215        2.75122390443895
H           80.97534941758946       -7.17438463993352        3.13465022972834
H           78.98478931098676       -7.85567398770352       -0.39594013913755
H           78.93326942884345       -5.42989491329214       -0.94000441812028
H           82.60923394245792       -4.49414189310996        0.64040138914911
H           84.47862871165896       -2.59045384093210        0.29815870416104
H           84.44242210497124        2.63191676139467       -0.43880571766666
H           82.56181196249842        4.49513656938972       -0.81248979054956
H           80.66290902179342        0.76595590425602       -0.25222197707400
H           78.82492802218437        5.41294576588552        0.76202489674145
H           78.84350703898878        7.83395754457469        0.19308021762019
H           80.86002122479977        7.14534590622343       -3.32140271158831
H           80.91715870484963        4.69318183142055       -2.91370144269625
H           77.22998971096585        4.41397995728243       -1.10970149164638
H           75.36132850674578        2.52352336384610       -0.69973562008043
C           89.95195343962568        0.02227952201554       -0.00807731174688
C           90.58275370104704       -1.20936766308793        0.25452520201775
C           89.93832762745056       -2.43966801252627        0.54446448238035
C           90.90631336654585       -3.39131558828927        0.71603526500799
C           92.17049039137170       -2.76972490370280        0.52605070350390
N           91.92416975080864       -1.44910065878590        0.26107235322405
C           93.43227736642228       -3.37138873924596        0.60467472353813
C           93.45130248609661       -4.83014635526315        0.86911739195667
C           94.05718205983979       -5.34965708821605        2.01261453863126
C           94.04649739748237       -6.71991211794548        2.21984342312310
N           93.48522878172415       -7.57634055310350        1.37236463935455
C           92.90834417055402       -7.08987266234534        0.27837664530036
C           92.86315717961979       -5.73561192920663       -0.01331582278184
C           94.65571699227527       -2.71610225891245        0.45568308110885
C           95.94232451793833       -3.38882971305763        0.48021580188754
C           96.87773656509897       -2.43079695080780        0.31575649037985
N           94.82987720311822       -1.38051746403211        0.25717380155820
C           96.16095582623994       -1.17778612035679        0.18289354949482
C           96.81293639126498        0.06101964303129        0.02121768801171
C           96.18166666846346        1.30741290639942       -0.15493880669229
C           96.82496199700661        2.56312229928416       -0.30375347857474
C           95.85689241136077        3.51245647515740       -0.48801756149212
C           94.59404322392936        2.86066331216488       -0.46385552887237
N           94.84046206804295        1.53165296973624       -0.24709996253062
C           93.33291933557418        3.45050633361287       -0.61498138863248
C           93.31811046649179        4.90670181733000       -0.89442455964208
C           92.71474530169559        5.80906023118702       -0.01944728499865
C           92.72996190280192        7.16054147309397       -0.32653623841608
N           93.29267273640539        7.64709877205869       -1.42798499475670
C           93.86755259574176        6.79339767648510       -2.26887580544800
C           93.90887285031442        5.42616882149400       -2.04587450773858
C           92.10944288753096        2.78505757984726       -0.53156945318771
C           90.82325160605686        3.42399701108887       -0.74537703486375
C           89.88794131536403        2.46715193911158       -0.57331011852172
C           90.60468751677237        1.24510012950198       -0.26561497138213
N           91.93475702715149        1.46235765382594       -0.25746552689639
H           88.87062219377285       -2.57013470607372        0.61602778527576
H           90.75954898128191       -4.43041931296023        0.96133516048014
H           92.64207167063506       -0.75137051875025        0.09675285838735
H           94.51635859644050       -4.68789844721668        2.73724060026688
H           94.50751090391717       -7.14750241612199        3.10537114646459
H           92.46239627214332       -7.81451198357886       -0.39658788282145
H           92.39287739054645       -5.38598322993998       -0.92473191618218
H           96.08755190904031       -4.45081563759470        0.59368603324960
H           97.95011816941533       -2.53610830519789        0.27738597976492
H           97.89203015081929        2.71270575067179       -0.26978740433479
H           96.00234391965030        4.57208870468827       -0.62034559376762
H           94.12318793524780        0.81851425770733       -0.16833767801433
H           92.25389356093521        5.45887588810739        0.89640340842751
H           92.27079182594615        7.88322021569095        0.34160539607007
H           94.31545813409637        7.22045336692555       -3.16138555342190
H           94.37850574308156        4.76643287545086       -2.76580631130456
H           90.67799843422077        4.46033302780127       -1.00368686728101
H           88.81571823917243        2.55203086790122       -0.64940732673719
