480
 energy: -785.228395045942 gnorm: 0.000501619435 xtb: 6.5.1 (b24c23e)
C          106.34311715437312       -0.09033420966179       -0.35150503467367
C          106.90485131102037        0.85022521536202        0.50198901562951
C          106.20656053688332        1.75096497178627        1.35424277554815
C          107.13199697974439        2.51133473824968        2.01240872262442
C          108.42585805516249        2.10808146395771        1.57500222027637
N          108.23757455210394        1.09577892616307        0.67613081831396
C          109.66472706754338        2.62286832887567        1.97123035894653
C          109.64622306538008        3.75409332948731        2.93053391550560
C          109.05069047766318        4.91980417696891        2.63680404804629
C          109.00451072566948        6.07244280402423        3.60605830018061
N          109.98266648642006        5.89943932753153        4.68324695797775
C          110.41530061190117        4.64775113881747        5.03781848350675
C          110.30838816588444        3.58843553226154        4.21666638343938
C          110.90419020354842        2.15346532185261        1.52786515382538
C          112.17211164917890        2.75686747833267        1.89403823003270
C          113.13065047843496        2.03799105434239        1.27377422144672
N          111.11268775353437        1.10137684886506        0.68933753191119
C          112.44846105478246        0.99780899854777        0.52926192083941
C          113.13459512848553        0.03168488265310       -0.23321391994074
C          112.54591837225512       -0.97115262951425       -1.02729660733594
C          113.23292390257446       -1.98057980324958       -1.75128545080797
C          112.30177150484889       -2.74693779212822       -2.39638269609643
C          111.01538450154848       -2.22552906115263       -2.08905975415458
N          111.21423962323783       -1.15925522053907       -1.25185663301464
C          109.77729022044716       -2.70920466347444       -2.52841010755001
C          109.80500783556892       -3.86346486311117       -3.45787183995932
C          109.21441599884857       -5.02824753308472       -3.14998874014081
C          109.21579727037603       -6.20809025510493       -4.08647185381378
N          110.24321012396021       -6.06132698376168       -5.12108623891931
C          110.66858145299395       -4.81466460716156       -5.50314621894105
C          110.51330188018528       -3.73017513246344       -4.72370172994885
C          108.53682405026215       -2.18626083366565       -2.14918034204185
C          107.25884316968722       -2.65085331276861       -2.66558107478150
C          106.30806771842624       -1.91835993815049       -2.05066483527713
C          107.00417306801715       -0.99922225760063       -1.16826717761111
N          108.34388510038596       -1.17915707963481       -1.26354709404738
H          105.25816866095992       -0.11185311704410       -0.37622475366284
H          105.13308729313339        1.79674327346512        1.44737218297581
H          106.94128361997649        3.27998177941319        2.74368756388507
H          108.98861484533502        0.60025414418117        0.20747631238306
H          108.55935823188591        5.08676371308468        1.68525449282625
H          107.98755437387923        6.17416142023090        4.02975712258699
H          109.23442620920697        7.01277195496623        3.08695965057347
H          109.88398463613927        6.56678648435201        5.43457638743014
H          110.92470391839727        4.59729830993570        5.99489175836692
H          110.70130131596427        2.62001571060920        4.49183100486292
H          112.29006644718950        3.62070257211572        2.52808153988812
H          114.19811444591751        2.18753577071748        1.29161295381065
H          114.30317053856703       -2.10664709792185       -1.76303678487478
H          112.48679367761333       -3.60373507892032       -3.02356064251112
H          110.46777702293183       -0.60274913176842       -0.84856527168411
H          108.69081023048393       -5.17230835558845       -2.21217122457277
H          108.21999951288460       -6.32561047828549       -4.55388914681525
H          109.42429804659642       -7.13213349737770       -3.53086226026897
H          110.18314942222969       -6.75384888383301       -5.85368322227547
H          111.21441521125125       -4.78798752880429       -6.44093391196407
H          110.89768493488133       -2.76443179738838       -5.01997884815409
H          107.13142337058372       -3.42179655087843       -3.40843605522233
H          105.23664320245599       -1.96616288017303       -2.16867577366239
C          189.60611825003545       -0.07179722043524       -0.55731543585631
C          188.97436181898084       -0.73947532245073       -1.59829463689408
C          189.60320438738097       -1.45587290063397       -2.65527973058938
C          188.62384041024737       -1.95691118039599       -3.46594917994508
C          187.36441022671434       -1.55123953778928       -2.93894083273390
N          187.62730082914746       -0.83029154784229       -1.80776333322928
C          186.09139501490586       -1.82909991363427       -3.44734142721654
C          186.02575380953849       -2.61681523811417       -4.70264105180475
C          186.57362427456354       -2.17636099918834       -5.84516069407295
C          186.53559776749691       -2.97529188501037       -7.12219811554443
N          185.53771685219189       -4.04580535848536       -7.04949706224631
C          185.15405696784612       -4.56123410526170       -5.83858398407608
C          185.33434328171384       -3.89802373774985       -4.68294236813964
C          184.89036861896969       -1.42530412138654       -2.85711122924958
C          183.58268905765863       -1.67169779397032       -3.43689739663669
C          182.68055219035179       -1.14106553496933       -2.58548374769686
N          184.76124981243848       -0.74319560183162       -1.68686304241742
C          183.43760907962104       -0.56780763554192       -1.48948531820460
C          182.82571902013976        0.03621005546333       -0.37496025543172
C          183.48285496543966        0.62240331386014        0.72256377648514
C          182.86217093833812        1.22013043848408        1.85129210790665
C          183.84640069528109        1.70554725595108        2.66728049609827
C          185.09990020855943        1.42771556591195        2.05620035712513
N          184.82875353930760        0.76316352751497        0.88935135660137
C          186.37197984567860        1.74986062708250        2.54342089441419
C          186.42519360625079        2.50357756757304        3.81898446319537
C          187.04038025054373        2.01121954060024        4.90472512465347
C          187.12176428597050        2.77088830219693        6.20311075548977
N          186.14644759082870        3.86419256750039        6.24049848728007
C          185.69460071882892        4.43193097694333        5.07683398202872
C          185.77210964437108        3.80361919600433        3.89069046097363
C          187.57422531278988        1.41763581583830        1.91107588880076
C          188.88967166638918        1.81146783328512        2.39074821455975
C          189.78397910532141        1.29610052419656        1.52291703154819
C          189.01591405597813        0.59924330717409        0.50657700760451
N          187.69008872887210        0.70236852311778        0.76599186097265
H          190.69119975408017       -0.08298564013092       -0.58437265294848
H          190.66977022128390       -1.57247391249193       -2.76483399745434
H          188.75583548697728       -2.56127230027018       -4.34870389994963
H          186.91446406027143       -0.42572830777023       -1.20989393875537
H          187.08546818224752       -1.22276069560300       -5.90335040016280
H          187.53411289558755       -3.40144718885777       -7.33540594979129
H          186.27416801598983       -2.32476962672141       -7.96786536733185
H          185.58303048304575       -4.69875608691484       -7.81836390564609
H          184.62040708391382       -5.50464504536678       -5.89476960494562
H          184.97977402265826       -4.29666382015788       -3.74312708945412
H          183.40232323270666       -2.17546333528139       -4.37278086546981
H          181.60547029509223       -1.12725914137821       -2.66865146565313
H          181.79728229802433        1.26919524980354        2.01138709966664
H          183.71853064585142        2.20989310546317        3.61121651898813
H          185.53786301968262        0.42557692889759        0.24681368549883
H          187.52633189762813        1.04259290314554        4.89552675277770
H          188.14362596189923        3.16882488598509        6.34880330993283
H          186.91163361642836        2.10060823484106        7.04747973340717
H          186.26954334005777        4.49171674435759        7.02213631630413
H          185.19469911174232        5.38727539327077        5.20137336224643
H          185.36707258562600        4.24642788269368        2.99175704255657
H          189.07819941762466        2.41228345958578        3.26590039047017
H          190.86019595629429        1.37174654768342        1.53730923614554
C          114.54357047312313        0.05525007268797       -0.20415882904147
C          115.76071428275947        0.06752624734568       -0.18169236882821
C          125.46794905026455        0.06156451127483        0.04265749275349
C          126.68576542318439        0.04495612128279        0.06668752841018
C          136.40409446206814       -0.07186732424335        0.21817859646756
C          137.62221657340760       -0.09717750240499        0.23077034458795
C          147.34901173758408       -0.07648029531553        0.35132769558914
C          148.56759407050180       -0.04657185281831        0.35182244800397
C          158.30354579052528        0.02798267189142        0.25354306298232
C          159.52226018343509        0.00900384168829        0.23345398522038
C          169.26766854252725        0.01155067618864        0.10144040098969
C          170.48567760365032        0.06704431904529        0.08135498539137
C          180.19999197600771        0.07871231430467       -0.28761475027516
C          181.41542712637496        0.05899595782541       -0.33585273444342
C          117.16874691909737        0.07285121408543       -0.14798099833187
C          117.77118189837684        0.65821060101943        0.98187835862896
C          117.10409803117095        1.24979147105237        2.08521683024023
C          118.05406753129469        1.73125874518530        2.94401836570932
C          119.33131645719321        1.43500009172976        2.39571056319955
N          119.10929931023213        0.78568873542656        1.21028767020721
C          120.57884377083987        1.77287109780023        2.93202275348795
C          120.56804370659661        2.50122454739158        4.22667770832355
C          120.10623227913010        1.93377357418559        5.35050372410258
C          120.13791518090959        2.63740407774073        6.68202590090764
N          120.33258042288912        4.08000170815477        6.51415165760801
C          120.95294765901953        4.57615715789885        5.39681182870911
C          121.06952568966565        3.86715840268732        4.26024061177933
C          121.81848603669835        1.48506971899631        2.36030330410697
C          123.08528250584665        1.83055449349135        2.97848970721473
C          124.05006048664933        1.35821563652388        2.16220894671417
N          122.03515677113123        0.81316770223825        1.19539432928885
C          123.37306282533577        0.71722650742783        1.05317010784147
C          124.06090566955814        0.07981251135193        0.00065017312092
C          123.45596011743723       -0.55661725311337       -1.10110620581863
C          124.11862259713313       -1.25625121981666       -2.14171229943026
C          123.16833690836388       -1.72430405174265       -3.00785940204786
C          121.89550239744108       -1.32085658203139       -2.52177952427909
N          122.11964340763416       -0.62655234716414       -1.36234811714687
C          120.64872887050063       -1.58735280106999       -3.09965630698249
C          120.66027803562318       -2.30756645612129       -4.39732092859179
C          121.23869740199687       -1.78375871959195       -5.48863631978519
C          121.21316270073396       -2.47528369963722       -6.82637903601027
N          120.87460109575291       -3.89360673709878       -6.68256640421456
C          120.14377188758074       -4.33060641009628       -5.60774267547189
C          120.02998401112190       -3.61738188274739       -4.47369870188891
C          119.40946249237560       -1.23764293095550       -2.56146818310568
C          118.14625422096132       -1.46935712031438       -3.23766501178012
C          117.18165859317257       -1.00816169365529       -2.41445703912225
C          117.85637853773164       -0.49323324657506       -1.23995371119424
N          119.19273556872714       -0.63090467755187       -1.36200426119804
H          116.03386669592462        1.30014562667758        2.20063848242414
H          117.88785211848739        2.25149256181071        3.87314017801314
H          119.83958362876173        0.45130690887733        0.59049498560461
H          119.75378114830245        0.90902851900241        5.36938786954459
H          120.94018738806099        2.21708414473001        7.31744273299753
H          119.18930036179994        2.48254416021717        7.21389702499384
H          120.51186932562086        4.57051672572231        7.37843028836722
H          121.26491765085289        5.61283101764456        5.47407739137862
H          121.49292577886412        4.30173386133521        3.36596837955099
H          123.19912317876793        2.35457402346441        3.91384477171075
H          125.11945674705824        1.42684260974640        2.27808807767156
H          125.18539124168281       -1.39320977380128       -2.20738477295449
H          123.33115871970629       -2.30874585325874       -3.89860779022034
H          121.39162879718619       -0.23139053918760       -0.77660809497385
H          121.68914680535603       -0.79799751685705       -5.47825803123742
H          120.49005533903667       -1.97806910974204       -7.50017948017971
H          122.19976119934255       -2.40870847648391       -7.30476252106868
H          120.69887504942614       -4.36147337666524       -7.56007955581700
H          119.73801551701474       -5.33181384421234       -5.71220426085220
H          119.51477066992138       -4.01199480623655       -3.60957477863440
H          118.03548161685742       -1.90954449994697       -4.21567209047325
H          116.11531745336342       -0.99245712291877       -2.57261063207787
C          128.09291720788625        0.02205543106747        0.09430730644365
C          128.70685057880499        0.22389661387322        1.34588159514822
C          128.05235684922243        0.44619355408337        2.58411722464641
C          129.01167459192627        0.64427230206932        3.53939497693563
C          130.28259387754875        0.53497392638746        2.91337077821293
N          130.04749454513743        0.27634556764888        1.58896919803012
C          131.53501080541324        0.70647477410940        3.51389957724680
C          131.53457422852807        1.01866248548460        4.96647244161005
C          131.09522682686244        0.13782484302462        5.87700801086091
C          131.13693479686751        0.41860753411216        7.35639217659588
N          131.30483999254554        1.85052561882502        7.61832645899332
C          131.90704742634367        2.66315345979192        6.69253261513673
C          132.02000486954125        2.32161267999762        5.39695882842168
C          132.76991034142048        0.61267234975038        2.87227682765134
C          134.04051407091802        0.77624000719709        3.55407773473447
C          134.99996412106739        0.56994296772414        2.62831440498041
N          132.97941888640167        0.31047244371162        1.56042282914958
C          134.31628756655090        0.26984535981394        1.38688855403375
C          134.99734930881635       -0.04094478017386        0.19189120966244
C          134.38118763689826       -0.33587395951355       -1.04056751091181
C          135.03066492130992       -0.71387033995007       -2.24298673000224
C          134.07108297226063       -0.90177179982229       -3.20034501899083
C          132.80555176885730       -0.64053960154136       -2.60954768748988
N          133.04286829158869       -0.31492063329055       -1.30033637465995
C          131.55426949333423       -0.70561395991904       -3.23397928631522
C          131.55570623716233       -1.00298752020272       -4.68801591208295
C          132.14646999685164       -0.18519824272152       -5.57253134455516
C          132.11032671224859       -0.44002626183966       -7.05641431389033
N          131.74802012458764       -1.82994911124158       -7.34571121858023
C          131.00697070673078       -2.55776939118977       -6.45033716431797
C          130.90228501611526       -2.21735495821443       -5.15385972310839
C          130.32006476317176       -0.51389204731776       -2.61150539022779
C          129.05549944415807       -0.50698531041264       -3.32347492511501
C          128.09604194336063       -0.30370207204743       -2.39658766370947
C          128.77485454756592       -0.18537744457384       -1.12218579960551
N          130.10923615866949       -0.29885158602186       -1.28334279661962
H          126.98370221582411        0.45467906231058        2.72107459338929
H          128.85561856171043        0.85433969015306        4.58486434738969
H          130.76977796809655        0.15046977811973        0.88770149238468
H          130.75479993446433       -0.85201528547055        5.59599283445958
H          131.95614477994124       -0.15350313390323        7.83143809536353
H          130.19962554238208        0.09500856193550        7.82893204116710
H          131.48675422725719        2.06871856971520        8.58740405647336
H          132.20624391376091        3.63603263649233        7.06931693352178
H          132.42831577050811        3.00610577087428        4.66716773514901
H          134.16061410577598        1.00812661297733        4.60013261957548
H          136.06979000134257        0.61365876724715        2.75055082243728
H          136.09518102852135       -0.83829703499552       -2.35328753884911
H          134.22315425600411       -1.20684806056932       -4.22274616243706
H          132.32335715872847       -0.09639310863238       -0.61935577708395
H          132.61494856033170        0.74312131865273       -5.26675664532339
H          131.39599076017822        0.24904755385397       -7.54536404642105
H          133.09812909515492       -0.24805447441819       -7.49680440636897
H          131.56587231990682       -2.00822682443623       -8.32288555953305
H          130.58454321919487       -3.47398780352493       -6.85042784816742
H          130.37805419576870       -2.84500501086636       -4.44737337240764
H          128.94056147557487       -0.62437850921804       -4.38908773527350
H          127.03091420334562       -0.22140243740566       -2.54066096229171
C          139.02897815146864       -0.12511146524455        0.25052002383961
C          139.64518518385967       -0.22790801084382        1.51342781943720
C          138.99383664136721       -0.32813926368276        2.76886865967483
C          139.95461304438990       -0.35296412278701        3.74275804658396
C          141.22359756835198       -0.27962545765967        3.10792211714811
N          140.98594719748115       -0.21330185855699        1.76052710870408
C          142.47468986964137       -0.22140768515135        3.73224240329399
C          142.47285218503012       -0.26554646217375        5.21764609427090
C          142.07578439620036       -1.35627173643755        5.88873015527182
C          142.11703497160383       -1.43812030951963        7.39230495260911
N          142.23464791703836       -0.10616768591951        7.99181969252612
C          142.79351758892622        0.92974404663059        7.28888313761017
C          142.90803921216917        0.91502642566324        5.94919379383322
C          143.70794512489388       -0.12111422447342        3.08881770468624
C          144.97568804659957       -0.06974301422459        3.79300835374822
C          145.93624935059202       -0.02595083764442        2.84674783855410
N          143.92075551019749       -0.11166600385630        1.74296994937310
C          145.25734887490211       -0.06598863231760        1.56801529862877
C          145.94207227787146       -0.09541224788489        0.33523301645286
C          145.32441911481618       -0.15687806491353       -0.93063659795341
C          145.97304251322740       -0.28343663091039       -2.18480465123584
C          145.01198583055907       -0.29136785529421       -3.15906478951642
C          143.74614154388519       -0.16432240103381       -2.52671061210045
N          143.98479154188539       -0.10415311581932       -1.17900312942669
C          142.49449835086821       -0.10224288506487       -3.15108932231441
C          142.49523104970609       -0.09488798893958       -4.63502023692633
C          143.09367835788296        0.88124502215710       -5.33458680273140
C          143.05843901363835        0.93392442932339       -6.83927172833944
N          142.68529707005678       -0.36492260119811       -7.40552034238120
C          141.93493924509062       -1.25246160913520       -6.67731650789671
C          141.83124671540378       -1.18246873270579       -5.33872088453569
C          141.26009726124187       -0.04144533704919       -2.50288979381047
C          139.99739269080075        0.12861323417363       -3.19751363042168
C          139.03686356023735        0.12976352412514       -2.24956523938330
C          139.71269166672553       -0.04213345882246       -0.98000536419791
N          141.04710100918129       -0.12143926041601       -1.16017939742749
H          137.92621067407549       -0.37505443594692        2.90481296949992
H          139.80045574114570       -0.40964683610496        4.80789879455968
H          141.70683001163042       -0.15125729971150        1.04933540369949
H          141.77250226607995       -2.26231208456563        5.37711226832137
H          142.95972602470198       -2.07696777282965        7.71749399786245
H          141.19536915786708       -1.90052163558084        7.77100779029789
H          142.41772797900342       -0.12088956872737        8.98479210687747
H          143.05635972636563        1.79511908270393        7.88892196153173
H          143.28040248058556        1.77177378568990        5.40590285909003
H          145.09352786857565       -0.07466721743801        4.86468400667072
H          147.00436320994191        0.02603459063208        2.97830796192427
H          147.03800689978786       -0.37370530573165       -2.31938651809071
H          145.16393155794319       -0.38852098607653       -4.22157927509083
H          143.26526297967496       -0.03328554275169       -0.46738014910517
H          143.56878032330530        1.72422010628569       -4.84630425180092
H          142.35111572254334        1.71427396778109       -7.17825596094394
H          144.04887081466276        1.20282065207828       -7.23081543678599
H          142.50298485940505       -0.33864468300711       -8.39847870163734
H          141.50422504131151       -2.06352637824754       -7.25577872886196
H          141.29908647457430       -1.93531491746713       -4.77486515364979
H          139.88449281376685        0.24944657664984       -4.26296772240279
H          137.97267723544959        0.24830956742751       -2.37315244006993
C          149.97433390992055       -0.02185166297338        0.34630755407192
C          150.62460310520655       -0.24911634907856        1.57576223873339
C          150.00944297359496       -0.49278181243242        2.82947055498343
C          150.99478574103497       -0.57804943659663        3.77495050704969
C          152.24441307988005       -0.40378486593365        3.12188309327771
N          151.97046852747579       -0.21668320286645        1.79282501926429
C          153.50864927238442       -0.36754669455079        3.72098813136385
C          153.54390753584568       -0.53057030753727        5.19788074459966
C          153.19366886709906       -1.68131556310002        5.78988397644823
C          153.27344652257159       -1.87767182939233        7.28135974208154
N          153.36483841835900       -0.59274592191751        7.97989346100962
C          153.88011529847637        0.50991523980640        7.34867820567326
C          153.96468542231432        0.60173929159163        6.00986553031064
C          154.72503017593402       -0.19341184969319        3.06172793779341
C          156.00767932132544       -0.18709671774138        3.74033674568432
C          156.94733402357753       -0.07202599634773        2.77914259865012
N          154.90812385514650       -0.07766030737830        1.71642459721911
C          156.24050926567534       -0.01682655963044        1.51628377831514
C          156.89680750961520        0.05037885712007        0.26928850657907
C          156.24679294087551        0.13106516463543       -0.97901447505121
C          156.85973188117745        0.14212443804535       -2.25704950312614
C          155.87351993487010        0.26496878497701       -3.19795809791201
C          154.62709318126116        0.33400258622417       -2.51969315626892
N          154.90211037206774        0.23172008603934       -1.18173411942296
C          153.36062935216421        0.48464362689670       -3.09767580437451
C          153.32528815877654        0.68094054874300       -4.56813467230398
C          153.91915396697181        1.73284890929256       -5.15238942673356
C          153.84767644873142        1.97850559185308       -6.63651872053311
N          153.44463572382398        0.76659185638912       -7.35459385096900
C          152.70260795055165       -0.20088536593604       -6.72677748307738
C          152.63199876064692       -0.30191569072845       -5.38799117462256
C          152.14289559208260        0.46465783832182       -2.41640832359883
C          150.86441742036899        0.72148692945616       -3.05283927042335
C          149.92526343911965        0.58117656994924       -2.09386921797381
C          150.62984586572531        0.24101787239473       -0.87519014782577
N          151.96043767547138        0.20188442348296       -1.09235263899332
H          148.94772110894496       -0.58534921747709        2.98498978161739
H          150.86919080015119       -0.74092607529346        4.83285823736485
H          152.66969600835310       -0.06323990250686        1.07387635737037
H          152.90320956742039       -2.55354959755253        5.21591423873171
H          154.14264131640783       -2.51236622425439        7.53769659660785
H          152.37548428885205       -2.39702030464028        7.64267405218860
H          153.56960258234756       -0.67826220434025        8.96504646369883
H          154.13307204277760        1.33355681452775        8.00869091987599
H          154.30255433008375        1.50762356750511        5.52709205245671
H          156.14868711078054       -0.26965640429763        4.80604092292552
H          158.01777556542081       -0.02300174481005        2.89121060530126
H          157.91914633069908        0.05474696526832       -2.43111638720057
H          155.99576435682468        0.29278592899088       -4.26835911943858
H          154.20427398294271        0.22804654499288       -0.44540495953262
H          154.41676755470871        2.50167979778551       -4.57268825278563
H          153.14186267693816        2.80228755568384       -6.85419880549388
H          154.83137375072303        2.28650863133274       -7.01601728854481
H          153.23871864119093        0.92147162538506       -8.33104664004489
H          152.24902119235404       -0.92789015772804       -7.39287377454986
H          152.10559187703711       -1.11681281363668       -4.91183306223101
H          150.72718716197960        0.99003295760177       -4.08800751492884
H          148.85854809949714        0.71056293322007       -2.17629084538147
C          160.92874228217141       -0.01954270178712        0.21246171554093
C          161.57941419859085       -0.37520086069652        1.41110372447034
C          160.96480082525824       -0.72111869610820        2.64073460886086
C          161.95284540538296       -0.92773170592637        3.56435394872753
C          163.20313751015948       -0.72593857492570        2.92046614044103
N          162.92691356435446       -0.40276931337629        1.61829656114161
C          164.47063675535509       -0.78248696879882        3.51080441873785
C          164.50757773740276       -1.09943892768170        4.96249231307847
C          164.12997766711965       -2.29635593829284        5.43391938477086
C          164.21096731455449       -2.64841351501770        6.89644377833902
N          164.33171056384859       -1.44494047621671        7.72364667759118
C          164.87421945214308       -0.29607726050257        7.20798916713775
C          164.95926237742177       -0.06854065151000        5.88551631168623
C          165.68832215842824       -0.56235917864397        2.86773508455240
C          166.97158324171562       -0.65160791723729        3.53902283636640
C          167.91097025508390       -0.43111051674715        2.59638361005185
N          165.87156308092827       -0.29640412618181        1.54391925253478
C          167.20453342346605       -0.22135642128086        1.35012590111913
C          167.86066530603986       -0.02254037574614        0.11703454948670
C          167.20593930994056        0.13362455171774       -1.12248894352545
C          167.81406280259918        0.21530379236839       -2.39998993224830
C          166.82480688446216        0.38705349500263       -3.32987804617017
C          165.58100510523158        0.42225659469431       -2.64445968999990
N          165.86035885827917        0.24292266669240       -1.31525212308067
C          164.31490204017331        0.62179946903914       -3.20816404620014
C          164.27589004524665        0.89975614535309       -4.66529270518382
C          164.88569752654556        1.97053026553085       -5.19644810663357
C          164.81044876289258        2.29754308881629       -6.66462996753355
N          164.37103334441122        1.13746527514392       -7.44444728175777
C          163.61606238542433        0.15131919445548       -6.86317883471840
C          163.55678627886456       -0.02304304884697       -5.53143501889101
C          163.09903877015321        0.58700354169784       -2.52390262911753
C          161.82570690616919        0.91642041992929       -3.13680949954446
C          160.88694777069463        0.74603589086022       -2.18230653494807
C          161.58600228473256        0.31054069489647       -0.99138407924498
N          162.91433386917390        0.24798703641848       -1.21788790061147
H          159.90186709273215       -0.79974498401875        2.79519078384347
H          161.82896295533280       -1.18974552798215        4.60235137099622
H          163.62586872723313       -0.20021451233306        0.91133353246865
H          163.81475835858197       -3.09647154455699        4.77436111742220
H          165.06764080814176       -3.32397090056676        7.08051686557040
H          163.30363080964455       -3.18380304335573        7.20719526459110
H          164.53446938490498       -1.63645589860582        8.69421786846053
H          165.14863180201721        0.44836094662614        7.94860159933128
H          165.31941636386341        0.87361420557291        5.49758473093575
H          167.11347785172129       -0.86446077085555        4.58637755580636
H          168.98191449652282       -0.41717513183661        2.70967729887758
H          168.87204255869682        0.13257830843707       -2.58292189061345
H          166.94354836772766        0.47051301320031       -4.39775742224972
H          165.16515988666754        0.19981046090875       -0.57769793380465
H          165.40107570323582        2.69793434110411       -4.57996781774009
H          164.12497469927754        3.14977730785896       -6.83172067191679
H          165.79930912759770        2.60058339806506       -7.03489495356119
H          164.15814094989202        1.35139518141461       -8.40813756482118
H          163.14069176985853       -0.52790546438185       -7.56362970241290
H          163.01834575260801       -0.85245421720589       -5.09550370230093
H          161.69194523822497        1.25091056891352       -4.15305915338788
H          159.82381110949413        0.90821777145989       -2.25132514537415
C          171.89249444872269        0.10262140867131        0.04342040595229
C          172.57477128947897       -0.18857675501250        1.24210131813929
C          171.98973852819100       -0.46996185150561        2.50231063507327
C          172.99807305892401       -0.63293340052846        3.41200200929114
C          174.23354955359835       -0.46947393641918        2.72961896572255
N          173.92691550408989       -0.20149789811996        1.42122952210247
C          175.51516626262892       -0.53267448087274        3.28799777602995
C          175.59125555760266       -0.82833952273397        4.74154122617875
C          175.17330186820490       -1.99887575225474        5.24533308859712
C          175.29665963579478       -2.33767432101039        6.70775477752474
N          175.51597590052580       -1.13324644365713        7.51297217961005
C          176.09376859865489       -0.01995747019000        6.95894876454521
C          176.13316754133146        0.18826903983344        5.63115334592188
C          176.71668972312244       -0.35490411971790        2.60111418416696
C          178.02283118416321       -0.49081810071548        3.22033883262553
C          178.93187087147726       -0.31166622072734        2.23958126839573
N          176.85413385977645       -0.09869489932245        1.27170137144612
C          178.18031274145679       -0.07091407331860        1.02387113732151
C          178.79162825831779        0.10704274097367       -0.23154031981607
C          178.11575799888851        0.30514097153407       -1.44927719796957
C          178.70506294441830        0.46669953765827       -2.72957137732488
C          177.69802563891565        0.66771552999176       -3.63398226417473
C          176.46393175181913        0.64496465706887       -2.92905678469864
N          176.76641722727041        0.40913692531765       -1.61462913362617
C          175.18223996863185        0.83319461728845       -3.45892007372924
C          175.10335903104107        1.14251924405616       -4.90852677137391
C          175.66072830541430        2.24763456741257       -5.42606316961737
C          175.54498263503305        2.60201554556040       -6.88535948342390
N          175.14569280934319        1.43892378888499       -7.68200513033114
C          174.43897676005696        0.41209294699326       -7.11072852741313
C          174.40645680941060        0.20962731827551       -5.78196096206894
C          173.98485137421281        0.75606376887948       -2.74611549072305
C          172.68950401367371        1.05452814701614       -3.32734522195825
C          171.77847112512478        0.85335022244630       -2.35252043609715
C          172.51605047230629        0.43517068458647       -1.17860486247652
N          173.83965993578803        0.40698732885329       -1.43704158315137
H          170.93089089186310       -0.52931479638439        2.68780620846655
H          172.89720153574044       -0.83969535429780        4.46483771435183
H          174.61051138504641       -0.03306067743833        0.69070598471713
H          174.79369298135364       -2.79070798452620        4.61010041376298
H          176.12319393363694       -3.05609977553901        6.86517503020597
H          174.37611400631187       -2.82030162690350        7.06297621476100
H          175.75260984285811       -1.32495165054889        8.47583004086031
H          176.43777840773885        0.71749820481199        7.67714175830952
H          176.52349281849831        1.10655925874163        5.21607673148780
H          178.19804542898271       -0.71000192620362        4.26137607388195
H          180.00759491823595       -0.34792608081695        2.30533413313913
H          179.76436889656563        0.43163019454034       -2.92632613043110
H          177.79781509434360        0.81301941661181       -4.69722400188074
H          176.08233332037133        0.32758477019709       -0.86994685666475
H          176.15924121124439        2.98099291723858       -4.80285481094831
H          174.81820102918087        3.42488128905170       -7.02268052451107
H          176.51220485395513        2.95769767260919       -7.26546423637026
H          174.91317644324590        1.66115675766803       -8.63925339508199
H          173.98104029358424       -0.27197170320986       -7.81806438493361
H          173.90766228044828       -0.64867008912091       -5.35487141833314
H          172.52313465655675        1.38929818938715       -4.33865734203850
H          170.71093582519561        0.99164380293636       -2.39521391255732
