122
 energy: -209.253203783267 gnorm: 0.000346821350 xtb: 6.5.1 (b24c23e)
Cu          12.63090376548980       -0.03712244092823       -0.00899459141805
C            9.22800132413558       -0.05541316828872       -0.14490673331752
C            9.85975500895201       -1.29011422851496       -0.16412683968302
C            9.18123753015010       -2.55391833495834       -0.19056445925668
C           10.13786821396833       -3.51544518491048       -0.20313990249209
C           11.41065757488012       -2.84704998095399       -0.19740667055193
N           11.20976591114333       -1.49680533534690       -0.16401312423679
C           12.65400368721545       -3.48424491329034       -0.20958246783829
C           12.66974714929435       -4.96499407638149       -0.30698022229321
C           12.16255885320941       -5.60510744577526       -1.37096597384379
C           12.15551968904271       -7.10744905568469       -1.48417088387033
N           13.08463815889887       -7.71532991765771       -0.52769570230093
C           13.41950161868971       -7.06041016712339        0.62962285405532
C           13.27237719339073       -5.73175718123922        0.77440563673630
C           13.88693853106220       -2.83219686971044       -0.14100560319790
C           15.16390027974293       -3.48372422275025       -0.21048127198761
C           16.11111815036744       -2.51531764898484       -0.12617629260003
N           14.07707803629964       -1.48039973157434       -0.02345699723664
C           15.42067417261608       -1.26611187296408       -0.00969547827579
C           16.05727756714550       -0.01770371777046        0.10934285653313
C           15.39981193592404        1.22273048913567        0.19197320739833
C           16.06603637474928        2.47876516653655        0.36242519947257
C           15.10392134269762        3.43590910453673        0.38748220675114
C           13.84264282809224        2.77083993052515        0.22352995613566
N           14.05604516600241        1.42182277670489        0.11393990162946
C           12.60094360473405        3.40939068149211        0.19924101072732
C           12.59160781272035        4.89018389604417        0.29698225981324
C           11.99213075773490        5.52436632263316        1.31555650748676
C           11.95416682186671        7.02646682505325        1.42551932643075
N           12.93758095319715        7.64950856955091        0.53531000061142
C           13.37591034679863        6.99579544808950       -0.58724537179073
C           13.26639715252947        5.66389907766236       -0.73561480069470
C           11.36935387138193        2.75901748182581        0.08723153592153
C           10.09313630333829        3.41388715885049       -0.00941047029481
C            9.15106422162711        2.44236673336039       -0.10131547188696
C            9.84293091696906        1.18586585137171       -0.07397618151557
N           11.18622877601531        1.40683415715801        0.03589752096885
H            8.14363374065016       -0.06118381381398       -0.18931286103290
H            8.10936106790264       -2.67604251609157       -0.18784195922223
H           10.00081015155346       -4.58485037652559       -0.20363860032392
H           11.71594089647559       -5.06891909777602       -2.20023355221966
H           12.46136351058892       -7.41205020624007       -2.49420227315391
H           11.13331846265186       -7.49789383109445       -1.32104136419634
H           13.00172800436369       -8.71963101874515       -0.46238919622888
H           13.89004502941296       -7.68288897056750        1.38404155109281
H           13.58940212755437       -5.22427103977697        1.67441146596213
H           15.31232424439399       -4.54588751860309       -0.31973989394705
H           17.18350837134288       -2.62675551281952       -0.14528526625623
H           17.13316953125763        2.60145969273901        0.45760606582892
H           15.23169854490340        4.49880766890963        0.51450512249431
H           11.48769898817696        4.98283151913426        2.10737434919117
H           12.18334678362514        7.33646693523872        2.45418645808318
H           10.93986987866935        7.40048740586029        1.19072310247789
H           12.83925057909553        8.65146924111895        0.45746494688152
H           13.89235210633652        7.62414154423473       -1.30592836134958
H           13.66368713309661        5.15915008178681       -1.60476735637285
H            9.94484445396161        4.48174544228711       -0.01871319034259
H            8.08173583890888        2.55325746304839       -0.19123749765433
Cu          28.65926681756558        0.03754520940731       -0.00072838817265
C           32.06216037405996        0.08489690121888       -0.12973450434388
C           31.43033735301837        1.29492285076287        0.11645101140283
C           32.10874011430683        2.53502895210838        0.36179277214370
C           31.15202015841846        3.47671571166576        0.55607646164213
C           29.87929129560987        2.82251634758046        0.41835835679918
N           30.08031273896589        1.49661358764217        0.16112420834300
C           28.63589157882112        3.44733854304470        0.54347554533138
C           28.62030786177857        4.91449518023241        0.76611993771426
C           29.12719568764103        5.76778628499801       -0.13610465418598
C           29.13512434232289        7.25939373102335        0.07580304708980
N           28.20634463448554        7.64821161471731        1.14059308385661
C           27.87176893827252        6.76043044322463        2.13072811733221
C           28.01849426419777        5.43160102265696        1.98713169431151
C           27.40300730162011        2.79570578173397        0.47059828743777
C           26.12601130327702        3.44685521632588        0.54288644194818
C           25.17885036101943        2.48290310841552        0.41711844506777
N           27.21294909025474        1.45021559828199        0.29486903115308
C           25.86936891345113        1.23795361602452        0.26197131290560
C           25.23285388641814       -0.00691067777981        0.10982098971971
C           25.89041836943948       -1.23614710604907       -0.07555105750163
C           25.22431983846035       -2.49960804769283       -0.17812606757067
C           26.18650868218834       -3.43977801631613       -0.35898365896894
C           27.44774874001125       -2.75494562085704       -0.37634798271617
N           27.23423351054125       -1.41384168360141       -0.19404818503772
C           28.68951349809437       -3.37335993578197       -0.53700275762783
C           28.69866466337198       -4.84060699656935       -0.75944361515684
C           29.29806129077958       -5.67893634631152        0.09902668529610
C           29.33509953960764       -7.16968001246857       -0.11585434320455
N           28.35178887021792       -7.58669199805176       -1.11934551607594
C           27.91355231072258       -6.70695137313819       -2.07516428979636
C           28.02344146215209       -5.37430923200044       -1.93396487012745
C           29.92105883834875       -2.71403587045646       -0.50673515165587
C           31.19735755611988       -3.33281740164957       -0.74146158832298
C           32.13932418755621       -2.36409196882632       -0.62282642144079
C           31.44732210761270       -1.14276151771354       -0.32666444724307
N           30.10404631476212       -1.38229278889335       -0.26677824658358
H           33.14652325299619        0.10015239659849       -0.17196546044953
H           33.18060036283619        2.65389314101087        0.39050855143377
H           31.28898831179812        4.52131023596194        0.78514397839954
H           29.57313961933388        5.42177969101015       -1.06133804976356
H           28.82948580027596        7.77394539133688       -0.84521862621288
H           30.15757327233307        7.60506918042270        0.31886680451770
H           28.28948467190765        8.61515014977132        1.41966385337762
H           27.40177002594625        7.20676620830799        3.00131494498698
H           27.70171143214628        4.74299486029001        2.75753854070923
H           25.97754231680370        4.50765318862170        0.66460721264478
H           24.10645580200693        2.59579894390991        0.42239005707558
H           24.15718721160622       -2.63991666716637       -0.11159054700065
H           26.05879941172320       -4.50520345729204       -0.46285383111332
H           29.80287595932092       -5.32029001468770        0.98853680109145
H           29.10521282281642       -7.69294740374954        0.82230823283655
H           30.34928033083744       -7.48536013805129       -0.42500997546682
H           28.45001919979764       -8.54851525033141       -1.41072186932908
H           27.39691459441054       -7.16608923721991       -2.91201567362267
H           27.62621862501819       -4.69452358709031       -2.67433297098914
H           31.34576490911655       -4.37382501812807       -0.97953752500565
H           33.20867563785148       -2.45297547259590       -0.73434819544417
C           21.25919916906918       -0.01982356049663        0.16798974966456
C           20.03097888096400       -0.01540244072256        0.16914983456288
C           18.68632102141876       -0.01364098314151        0.15830407270635
C           17.46258842642207       -0.01069531408548        0.14135190089600
C           22.60386560397844       -0.02047751555375        0.15824749543970
C           23.82756148482677       -0.02064670184537        0.14033985051568
