304
 energy: -528.692470926994 gnorm: 0.000649517944 xtb: 6.5.1 (b24c23e)
Zn          42.84154561928632        0.07916109653448       -0.03984722108630
C           39.42921676961031        0.18462767949931       -0.10007944780688
C           40.06074705726719        1.03497693523170        0.80006719860449
C           39.38982519816786        1.93141517400455        1.70047214993400
C           40.35101671470934        2.57471271310486        2.40931002730859
C           41.62120475336786        2.08271759657410        1.94696392886720
N           41.40970231261525        1.14970180101960        0.97463584369223
C           42.87045816589573        2.48115285202964        2.43330609459735
C           44.10783274999486        1.99405214521590        2.00632841390883
C           45.38541188227526        2.43324010809021        2.49505420446887
C           46.33396880300430        1.73946919164049        1.81604206008483
N           44.30490274716729        1.04500459586785        1.03858408419708
C           45.64632776754827        0.87209274246943        0.90361814050353
C           46.27852073743517       -0.01076521853344        0.00462278467483
C           45.62323039114963       -0.86662021279950       -0.90381335092588
C           46.28768730666264       -1.77786740012931       -1.79012962724402
C           45.32188503925241       -2.42954510972685       -2.48620774044848
C           44.05680157732363       -1.91731854961056       -2.03758815297958
C           42.80730884748660       -2.33714290605113       -2.50012746445270
C           42.79109850389209       -3.39255923245747       -3.55392474821684
C           43.22169962177006       -3.10601980277270       -4.85583620011384
O           43.62893034745090       -1.82781426030866       -5.07902515411901
C           44.11471596578026       -1.44359655265347       -6.34903145091838
C           43.20598045622486       -4.09555832131658       -5.83843543678676
C           42.76315099855336       -5.36898446926108       -5.51415453951107
C           42.33299282408188       -5.67662015941610       -4.23222372027328
C           42.34496275584722       -4.68572868529111       -3.25115401507666
O           41.95099190066698       -4.89192990797425       -1.96575461159415
C           41.47240739663975       -6.15736547769490       -1.55851308581980
C           41.56848695711633       -1.85862995346196       -2.06097461266542
C           40.28709439434979       -2.27191001622374       -2.56771312041466
C           39.34366136622400       -1.56379302585119       -1.89792012725827
C           40.03709823512223       -0.70666269527020       -0.97649795941128
N           41.38147253088444       -0.90743546278726       -1.10152688638514
N           44.27833002665304       -0.97077296882541       -1.07251457454781
C           42.88107181032284        3.52270824765400        3.50116079702947
C           43.22837999646907        3.18745302138655        4.81613867946802
O           43.53385261512884        1.88038915982678        5.03438518668748
C           43.90938057198263        1.43948001757938        6.32319937685663
C           43.23628056173680        4.16148152818861        5.81417738703615
C           42.89988248234072        5.46762133302675        5.49197581032331
C           42.55364894638269        5.82339400667806        4.19715186994015
C           42.54240873794220        4.84826266396499        3.20030551559935
O           42.22390125349547        5.09941815779994        1.90209393933667
C           41.87582120811678        6.40566997326173        1.49117917469904
H           38.34410936966864        0.21949074422897       -0.11951334240996
H           38.31899388521323        2.04256682091402        1.77403222704096
H           40.21919473760378        3.31737836010899        3.18013566793707
H           45.53267031873025        3.17974421706996        3.25911759356515
H           47.40598423901429        1.80478517760109        1.91559725711173
H           47.35699863887430       -1.90056582441659       -1.86017070187986
H           45.44988877719015       -3.19158230276722       -3.23821770757717
H           43.34536763492778       -1.55017734107302       -7.12358388315315
H           44.39231183490000       -0.39137863998049       -6.26277184384276
H           44.99882127745184       -2.02684929795571       -6.63399156297605
H           43.53297492759152       -3.88314648417255       -6.84753864541989
H           42.75283618839816       -6.13906730607902       -6.27772736339965
H           41.99483882333325       -6.67920803831018       -4.00680043503693
H           41.21231026217817       -6.05867478302803       -0.50288316272433
H           40.57875230527127       -6.45000530286534       -2.12319919572429
H           42.24051656296745       -6.93258330229096       -1.66875161215031
H           40.13607184181460       -3.00935787144305       -3.34002101584307
H           38.27133314573499       -1.60687266838330       -2.01077412099830
H           44.10958745449821        0.37022214758621        6.23235567791464
H           43.10404887498429        1.59396459662081        7.05173141583875
H           44.81658693245362        1.94696626230426        6.67309873782668
H           43.49980449835815        3.91218365719726        6.83336235329187
H           42.90733374920922        6.22551765951064        6.26768590942463
H           42.29684757345500        6.85040852947337        3.97434884489310
H           42.69791343945185        7.11224054235528        1.65842831409880
H           41.66971156578212        6.34296205086597        0.42099331486339
H           40.97843652711045        6.76476446414277        2.00974516212090
Zn          91.02395893104453        0.00729514206410       -0.09376505206505
C           94.43500537388134        0.11429277687147       -0.19440315043039
C           93.80882108180349       -0.64362758913005       -1.17708626954053
C           94.48469166520508       -1.38365767882631       -2.20666909958657
C           93.52751650830942       -1.98685203558491       -2.95513631874665
C           92.25483876658832       -1.61766470617081       -2.39554962646241
N           92.46097364121992       -0.80704953874298       -1.31796782759125
C           91.00795801776958       -2.03783012531289       -2.86945031345096
C           89.76823854666432       -1.69740921677848       -2.32361719523912
C           88.49318273162363       -2.10801641857083       -2.84275387401094
C           87.54088079960677       -1.55535997889995       -2.04905990734991
N           89.56600625722140       -0.90110920863920       -1.22770792720312
C           88.22376389049610       -0.80052568106102       -1.03844660543270
C           87.58728897576430       -0.07592671609410       -0.01018365673083
C           88.23860385742169        0.66941310569262        0.99380168087062
C           87.57006745307898        1.37814554066802        2.04645501532638
C           88.53207291066258        1.96588178003224        2.80218309455855
C           89.79869880206117        1.62815738164962        2.21432567175329
C           91.04531039584843        2.03478474138270        2.69620457024910
C           91.05498792792910        2.90841505924177        3.90492412779709
C           90.59556780199829        4.22989532895957        3.82962076153458
O           90.16890318935924        4.64144863699733        2.60572252017426
C           89.64594761924324        5.94235926137422        2.43054457994469
C           90.60430452237550        5.04609638975407        4.96031244924995
C           91.06921199183699        4.53643656974593        6.16321905700357
C           91.52807986489493        3.23162010579957        6.26254542759055
C           91.52296932229065        2.41708446176360        5.13067367890877
O           91.94435275003345        1.12380561521251        5.13031485897477
C           92.44664375851450        0.53505794460001        6.31239502352954
C           92.28590060867900        1.69686875476284        2.14535343782792
C           93.56396076273732        2.14693615120479        2.62853956618734
C           94.51053719285962        1.61077182594209        1.81821019161731
C           93.82233243878620        0.83042446874907        0.82730289109109
N           92.47784586721848        0.90552119987344        1.05109539191831
N           89.58206537444489        0.83364435137253        1.11965422839330
C           91.00192287123903       -2.92668415534095       -4.06744343566130
C           90.65837634328776       -4.27918615507173       -3.94475710535641
O           90.35273945154533       -4.70239114128710       -2.68907359579968
C           89.98124634755591       -6.04594664186089       -2.45798205585854
C           90.65388294876951       -5.11051990737260       -5.06446311291358
C           90.98993873718378       -4.58472313218325       -6.30282842665115
C           91.33229574832986       -3.24887041213885       -6.44894522805818
C           91.33992125629086       -2.41882001298740       -5.32837708533804
O           91.65405563556644       -1.09613692421560       -5.37060042441348
C           91.99638899567745       -0.48149469610913       -6.59585775098184
H           95.51976419969404        0.14960488543567       -0.22777788903902
H           95.55585200251258       -1.43084963639127       -2.32850632135028
H           93.66372042304083       -2.62722614599771       -3.81215084777865
H           88.35013301934461       -2.73729347169990       -3.70664476113888
H           86.46929573680723       -1.64458322439851       -2.13357548833641
H           86.50088843158730        1.41275501024751        2.18436942808140
H           88.40035114121017        2.57530145930013        3.68187426665728
H           90.39706423451101        6.71127480855192        2.64910536740617
H           89.35527461654739        6.01423929933077        1.38077216138984
H           88.76358004744135        6.10841132454729        3.06050564834740
H           90.25523837888645        6.06886702653631        4.91112532511385
H           91.07430813830278        5.17044430091208        7.04309279890154
H           91.88305617486643        2.85976130722877        7.21441560321441
H           92.72632520193986       -0.48655525980981        6.04814400927000
H           93.33254242499819        1.06641450240237        6.68116209900570
H           91.68624111469468        0.50689315376300        7.10240458479274
H           93.71083900540386        2.79278012528530        3.47963188937222
H           95.58175426543626        1.72835163555883        1.87425774168985
H           89.78156860877544       -6.12638982351837       -1.38779040669240
H           90.78853367771768       -6.73841041039507       -2.72623201165927
H           89.07466493935314       -6.31361855905517       -3.01426830623876
H           90.39307366929438       -6.15701892828143       -4.97985915588653
H           90.98518627206822       -5.23077589846717       -7.17390828627248
H           91.58886644348952       -2.86563285797272       -7.42753751902960
H           91.17311215418229       -0.53916334303578       -7.31832198607972
H           92.19722525614462        0.56633420755568       -6.36470538881929
H           92.89535597699266       -0.93165288709375       -7.03445316958030
C           51.48211214915022       -0.06316681913260        0.01251708286318
C           50.25370234569377       -0.06061051900684        0.01519587138942
C           48.90844266051310       -0.05069814373118        0.01679581614995
C           47.68446178717326       -0.03705754249043        0.01310349212154
C           52.82730180534448       -0.06074616835932        0.00924764411369
C           54.05151449890028       -0.05449872872321        0.00245300842172
C           67.54821840645576        0.01871616095163       -0.04131109052050
C           66.31916107354856        0.01578740396787       -0.04666406636741
C           64.97506462804972        0.01413252050861       -0.04837626523563
C           63.75040725520567        0.00840932873701       -0.04299123291559
C           68.89228187799780        0.01577136037295       -0.03327444310213
C           70.11691685390511        0.01047661786133       -0.02313567786334
C           83.61270905307865       -0.10238060496624        0.04229299141796
C           82.38418387705387       -0.09919539237264        0.05147548233415
C           81.03927489748054       -0.09771410639291        0.05419243362436
C           79.81496472466321       -0.08841986904441        0.05415220621750
C           84.95767483941194       -0.10065007951365        0.03027643270627
C           86.18178115509677       -0.09522247062529        0.01445971651587
Zn          58.90169915836624       -0.02229408063033       -0.02069050528195
C           55.45714386823649       -0.04605899317030       -0.00458150528212
C           56.10856229706328       -0.03533297275194        1.24563025633878
C           55.43936838929515       -0.05252678942755        2.51343603375643
C           56.40251619199306       -0.04138290229146        3.47016932442312
C           57.66933448359642       -0.01197745514339        2.79504645014759
N           57.45351609622887       -0.01331955025668        1.44292504724836
C           58.91779329080949       -0.00435067868698        3.42297461761401
C           60.16029023465311       -0.00300819355486        2.78381774554194
C           61.43339188148781        0.03315663088816        3.44657659252027
C           62.38744221330975        0.03485717467758        2.48062831840470
N           60.36355631549592       -0.01524108651328        1.42955116300496
C           61.70622001070646        0.00508666888545        1.21954057132499
C           62.34604101743334        0.00018459531857       -0.03735313558526
C           61.69433278898652       -0.01189548325196       -1.28799639331629
C           62.36360379323561       -0.02988565331550       -2.55566859973446
C           61.40024658396945       -0.03841194883261       -3.51232633842266
C           60.13328259057356       -0.02105422095283       -2.83714612990746
C           58.88490075783894       -0.03574057770186       -3.46448737342173
C           58.87766374042953       -0.03928344508730       -4.95616669175209
C           58.47998087009752       -1.18328023361333       -5.66016239911105
O           58.12477696220536       -2.25373403017396       -4.90058314077731
C           57.67838040106330       -3.44759140654976       -5.51055639490665
C           58.47528073745234       -1.18744729249273       -7.05468831470094
C           58.86408936592690       -0.04579293831625       -7.73912957153367
C           59.25893961711099        1.09925627240020       -7.06386114041236
C           59.26767148475744        1.10170298824679       -5.66935748431421
O           59.62902555009633        2.17606377262716       -4.91831730927255
C           60.05950560249327        3.37059692006447       -5.53838845140890
C           57.64234234827472       -0.04740840514297       -2.82520123635774
C           56.36893212946723       -0.03547380018413       -3.48845042850505
C           55.41478185456830       -0.03922656942089       -2.52268052421522
C           56.09615431460657       -0.04776244306094       -1.26122581991869
N           57.43928398664836       -0.05090719862359       -1.47121933334228
N           60.34949197163230       -0.00916528582766       -1.48489958803885
C           58.92452555252529        0.00330712632717        4.91466228538497
C           59.34144283920076       -1.12834845504215        5.62765833117959
O           59.71566467299471       -2.19861636718979        4.87703254986458
C           60.16455163519996       -3.38584577500687        5.49817437026752
C           59.34582120013367       -1.12180829708902        7.02218260140899
C           58.93700591704247        0.01789470113681        7.69807183113219
C           58.52205561941814        1.15045987412179        7.01397994153494
C           58.51405314046006        1.14235761431491        5.61948159769936
O           58.13343407920155        2.20490550054525        4.86100990269713
C           57.68151848375513        3.39536362481101        5.47360475734918
H           54.36914224314027       -0.07429543311532        2.64556434339081
H           56.27078921951266       -0.05392958688888        4.54024268516691
H           61.57539177786798        0.05608522612368        4.51516100510482
H           63.45884984627026        0.05758069305306        2.60263800065665
H           63.43400580373559       -0.03800646409949       -2.68796748193586
H           61.53196748963663       -0.05657160819749       -4.58233319531720
H           56.77780660791222       -3.27810203550323       -6.11325382675801
H           57.44029072072655       -4.13429653564168       -4.69605290537362
H           58.45754871965778       -3.89343757048147       -6.14077358303466
H           58.17417611251449       -2.06721837850367       -7.60756601122001
H           58.85910611838396       -0.04843192763453       -8.82363636410358
H           59.55436159454543        1.97645993445232       -7.62383100492951
H           60.30588572713116        4.06104482155202       -4.72953742250591
H           59.26823187499719        3.81002839439800       -6.15798184291012
H           60.95181945565199        3.20465100759942       -6.15417169304667
H           56.22701722082769       -0.02378112972400       -4.55724478119722
H           54.34316646746710       -0.03251003989955       -2.64485212780809
H           59.38312724349900       -3.83156662251545        6.12570099686463
H           60.41238765019787       -4.07667470655049        4.69011860186288
H           61.05974667152773       -3.20749958453778        6.10629402151490
H           59.66243011316392       -1.99178178481739        7.58181818618368
H           58.94192823787589        0.02359570187568        8.78255443228780
H           58.21055279866488        2.02632859972996        7.56725056912890
H           58.46319175836431        3.85045699031207        6.09405550959239
H           56.78966425127907        3.21789045322538        6.08689223546518
H           57.42707688965449        4.07793477402915        4.66060068726709
Zn          74.96544665978676       -0.03596360588220        0.01705040816575
C           71.52120850871444        0.00074092505529       -0.01162836032794
C           72.15683970633791       -0.00842259993522        1.24732446239993
C           71.47127307076796       -0.01984749806830        2.50629226577505
C           72.42217527980695       -0.02198759697502        3.47535479829022
C           73.69777919537859       -0.00706391067326        2.81659788546789
N           73.49904122486087       -0.00444609472416        1.46161736591346
C           74.93796906857548       -0.01210807793212        3.46034549531414
C           76.18875679067652       -0.02624810934354        2.83729442081571
C           77.45358564425570       -0.00213917538556        3.51630585559797
C           78.41997437332250       -0.01777994202773        2.56280318822495
N           76.40905262058821       -0.04782364234043        1.48605347600056
C           77.75473027667996       -0.04667829822981        1.29316766127039
C           78.40973554610528       -0.07623195671407        0.04505154343736
C           77.77401591322308       -0.09210908968121       -1.21347885514875
C           78.45889496098913       -0.13685624088659       -2.47218144261528
C           77.50811921665753       -0.12741332720764       -3.44127657621441
C           76.23342370128111       -0.07199578625711       -2.78293345022410
C           74.99337870219648       -0.05058706721039       -3.42707219948416
C           75.00684013946963       -0.04944953500053       -4.91865249659886
C           74.58079602333480       -1.17627048278107       -5.63375226453770
O           74.17743372102542       -2.23726775686864       -4.88501335190409
C           73.70456182984053       -3.41397395511251       -5.50831226845976
C           74.59738974122088       -1.17480258242102       -7.02821616983381
C           75.03556785687523       -0.04469209840552       -7.70183891775607
C           75.45900188348854        1.08346750925042       -7.01562430154520
C           75.44634912661445        1.08024739746142       -5.62118113533681
O           75.83182467742840        2.13939007228344       -4.86052080428589
C           76.32802817296722        3.31427927016217       -5.46893871722348
C           73.74293079546159       -0.02806690089310       -2.80415318935357
C           72.47896506867002        0.01950432808912       -3.48347174400884
C           71.51255213916066        0.03288804068734       -2.52998580774484
C           72.17716293893442        0.00005938304682       -1.26014254398395
N           73.52215273765958       -0.03278841581766       -1.45258538430659
N           76.43208405528702       -0.05843254396480       -1.42825606822950
C           74.92465322308726        0.00003515967928        4.95191048238184
C           75.31873925876845       -1.13366315870428        5.67440549876882
O           75.69245264559736       -2.21024395684741        4.93255047786271
C           76.12622190640798       -3.39790502067781        5.56342538709903
C           75.30189728182539       -1.12273850505318        7.06883275999404
C           74.89472391957754        0.02332125287399        7.73491174923381
C           74.50259223597227        1.15825313501862        7.04126093558907
C           74.51579198497623        1.14576772061633        5.64688553517335
O           74.15816054724067        2.20943555897727        4.87898770210579
C           73.71358697655701        3.40862365583209        5.47979551954461
H           70.39927059093924       -0.02790186935453        2.62486438150594
H           72.27642122916924       -0.03406699497744        4.54361248266917
H           77.58189575709895        0.02450985427360        4.58655041502779
H           79.48998009973101       -0.00826708635839        2.69829326262744
H           79.53032890917804       -0.17328150968155       -2.59048718894262
H           77.65318266869222       -0.15701309882828       -4.50929967589355
H           72.82188498145184       -3.21346298706366       -6.12772383957933
H           73.42853346562659       -4.09543790450373       -4.70143305540215
H           74.48117731546898       -3.88251292663372       -6.12509837396108
H           74.27486253547515       -2.04152859235429       -7.58951957444514
H           75.04710846923162       -0.04305060187089       -8.78628717683471
H           75.79265475618146        1.95227249244363       -7.56712961569549
H           76.58550868044316        3.99312487670301       -4.65375693793793
H           75.57143237440191        3.78820214770108       -6.10616507857118
H           77.22624002122046        3.10935446449946       -6.06406899421415
H           72.35113988996294        0.04094744537330       -4.55386996263521
H           70.44307207345791        0.06591396500116       -2.66577085642509
H           75.33487366739865       -3.83616817120400        6.18374487064150
H           76.37865815051254       -4.09357143563066        4.76094436134480
H           77.01560798472238       -3.22296525834966        6.18100571078172
H           75.60035264295891       -1.99435652972759        7.63585319097502
H           74.88266793575066        0.03219906987991        8.81932352670261
H           74.19182841646098        2.03908762947262        7.58703180665326
H           74.49318704876659        3.85706315924175        6.10765086767535
H           72.81191913705761        3.24574964759503        6.08266130067959
H           73.47802952612624        4.08995212488891        4.66006254491715
