280
 energy: -457.781281363940 gnorm: 0.000788925074 xtb: 6.5.1 (b24c23e)
Zn          50.18317685558193        0.02632399883837       -0.02933869172843
C           46.77459644461023        0.09925451291812       -0.07920730824375
C           47.40084180259350        1.01640157620348        0.75654289418046
C           46.72332798683905        1.94766601239616        1.61373271587317
C           47.67997410036794        2.65971632521488        2.26109428615925
C           48.95468598822134        2.18037032238919        1.79727280075069
N           48.74985241303876        1.17788449398327        0.89475304551333
C           50.20416064138559        2.65283345470896        2.22076562275177
C           50.21417394377464        3.77711460237674        3.18736334370998
C           49.63197014521658        5.00557897248878        2.86304398695218
C           49.65059812559720        6.05626134716737        3.76100303204804
C           50.24862329250072        5.90716332411576        5.01815008229072
N           50.19405911613465        6.97178335078867        5.90735288874724
C           51.18775521710658        7.07096975329956        6.96842259111854
C           50.81716263811418        4.67553091317698        5.35450435920858
C           50.80424960762515        3.63229785386052        4.44417931208539
C           51.44410201700093        2.15169146194522        1.80761524085405
C           52.72255223566511        2.67925473120971        2.19617187818823
C           53.67091510781910        1.92599680801101        1.58220028986894
N           51.64068635657206        1.09952733680095        0.95253390951903
C           52.98284136259922        0.93829850140662        0.80495362251035
C           53.61656697796263       -0.04413790634420        0.01651146836960
C           52.96474734057706       -1.00253382234581       -0.78654200881223
C           53.63253992897469       -2.01874386842540       -1.54444283352962
C           52.67094237371872       -2.73374252007664       -2.18325819713661
C           51.40520994259428       -2.15340028262020       -1.82995124387986
N           51.62163385900639       -1.10916949288856       -0.96986072463314
C           50.15730953142398       -2.60203816523188       -2.27791261863398
C           50.14566891098708       -3.72893248576343       -3.24165570656539
C           50.77304479603801       -3.61439288876022       -4.48334552255773
C           50.76369534958810       -4.66069732049774       -5.39037059803661
C           50.13412384808657       -5.86538863487321       -5.06535863647035
N           50.05500941004371       -6.92991764614839       -5.95267269217193
C           51.06595486144225       -7.07459213220430       -6.99182057832069
C           49.49919687858839       -5.98402659281753       -3.82312226051299
C           49.50324793672841       -4.93011413210232       -2.92886820707768
C           48.91752486280235       -2.07550761579086       -1.89124859442171
C           47.63750807923321       -2.50046795578995       -2.39210289705496
C           46.69374784055148       -1.74708264983855       -1.77323573361383
C           47.38516416243045       -0.84454914895705       -0.89667663329027
N           48.72952333397161       -1.06379106619267       -0.99540596671578
H           45.68918112989098        0.12245762401155       -0.09501317449943
H           45.65177422472791        2.03089132287898        1.70825966863817
H           47.53848887743220        3.43316127545986        2.99900280923914
H           49.18187806378440        5.14200238243818        1.88568027327291
H           49.20228666951998        7.00730330334223        3.49302826067845
H           50.04076921515527        7.85868012024052        5.44222642578643
H           52.20765226035260        6.99691475565003        6.57376462100557
H           51.02943053299784        6.28134657634336        7.70400557418855
H           51.06049953404450        8.03557261470967        7.45987719697894
H           51.26866978843318        4.52322236847708        6.32719969090552
H           51.24099763579717        2.67856605819035        4.72038774499909
H           52.87484587138844        3.52784612594260        2.84358299522110
H           54.74285507820984        2.02988922068198        1.63936478737243
H           54.70049447738783       -2.16665960950120       -1.57222631183286
H           52.80542350908117       -3.58880392605308       -2.82612167510749
H           51.25740749996152       -2.68149177339122       -4.75119121619153
H           51.24554122593747       -4.53155555022054       -6.35182135573628
H           49.85355039422426       -7.80795609053872       -5.48917794399713
H           50.95590301072473       -6.28241853920162       -7.73348543248012
H           50.90941163969750       -8.03534034411194       -7.48239149182944
H           52.07954106636743       -7.04084546095434       -6.57594402701853
H           49.00366685019732       -6.91386207804740       -3.56401061648611
H           49.02285726814412       -5.04312618634864       -1.96301329884519
H           47.48458310231389       -3.26819625702481       -3.13369332919620
H           45.62283610605123       -1.78455482743552       -1.89913071778683
Zn          98.32447525929243        0.01853951968037       -0.02176157602118
C          101.73264741175278        0.06330424226863       -0.11486848746330
C          101.10758392323930       -0.95531321460474       -0.82443667523807
C          101.78640590983876       -1.99287453142879       -1.54812302755730
C          100.83075646499753       -2.78422952606560       -2.09740298689453
C           99.55525048942914       -2.23181764609852       -1.72621232376037
N           99.75876729632292       -1.13083548611609       -0.94652811675595
C           98.30651225175649       -2.75366077814208       -2.08959245016986
C           98.29893570706267       -3.94307994682037       -2.97500442961376
C           98.87461388398364       -3.89130758328104       -4.24750355782855
C           98.86006573333837       -4.99752522021932       -5.07608477773816
C           98.27312473200450       -6.19601435159040       -4.65239833574787
N           98.33247690141971       -7.29619031230268       -5.49669080722076
C           97.35125649096523       -8.36377588333080       -5.35409834009655
C           97.71091147514691       -6.25862731448062       -3.37440180735815
C           97.71934546587319       -5.14180019459046       -2.55585208929319
C           97.06594574880218       -2.24526792571156       -1.68742299395105
C           95.78797400257548       -2.74511076058514       -2.11242138469135
C           94.83872952925412       -1.98225592582110       -1.51171568075439
N           96.86814896417062       -1.17941246984838       -0.84971337228698
C           95.52577860450563       -1.00357788034406       -0.72219557354438
C           94.89114786368235       -0.01875018262210        0.06247208210776
C           95.54218701084568        0.97611726923875        0.82069805010637
C           94.87355214869203        1.93617752792266        1.64786390316632
C           95.83431032595151        2.71741713582830        2.20514036039543
C           97.10031922647585        2.24900327856995        1.71371982427071
N           96.88497885348519        1.18107171291500        0.88295379170591
C           98.34743470137437        2.78813850389086        2.05053760294086
C           98.35728511149308        3.97570061507386        2.93826806033430
C           97.72131555556484        5.15836048341907        2.55676262638072
C           97.72791744929891        6.27305703195008        3.37820857782423
C           98.36381444586975        6.22435682749116        4.62181676370597
N           98.44002698360774        7.32429205671819        5.46507231765752
C           97.42082225085088        8.36231006101809        5.38407840260306
C           99.00790451264389        5.04241288846448        5.00717409903635
C           99.00613660395672        3.93834721582111        4.17560287373150
C           99.58762901136161        2.29975751271380        1.61780411299550
C          100.86656540826091        2.88633774990065        1.91808443411332
C          101.81102737386641        2.12094396191404        1.31524431889750
C          101.12107263398259        1.06531265340749        0.62927207081181
N           99.77688729967262        1.20465831310655        0.82637155556079
H          102.81790782117959        0.07776588218279       -0.14512257211720
H          102.85814803144008       -2.09898972069003       -1.61288866131223
H          100.97349992034630       -3.67289978853418       -2.69122986999862
H           99.31664887490027       -2.96434310747102       -4.59646981012166
H           99.30334981739922       -4.94106854693546       -6.06481351869144
H           98.47781138296988       -7.03583670542275       -6.46489945343953
H           96.32697680876767       -7.97353464000242       -5.35979197205577
H           97.52284373075402       -8.90757038732895       -4.42427890900142
H           97.47923234537765       -9.05250560165435       -6.18923895534641
H           97.26802824929835       -7.17772689274102       -3.01064069568575
H           97.28760600064780       -5.20570356962240       -1.56279286483656
H           95.63667071589880       -3.56526916553188       -2.79574738681236
H           93.76678865541274       -2.06423289105819       -1.59759017455733
H           93.80570746872297        1.99342396304152        1.78781908172833
H           95.69893071076353        3.53063401582187        2.89998549348033
H           97.23222378836151        5.21192331538432        1.59003378967575
H           97.23901625061150        7.17974301990770        3.04336286782202
H           98.64898689475876        7.06639081138687        6.42225349660543
H           97.52096440868554        8.91252513198299        4.44763353142701
H           97.57730222689091        9.05320291610558        6.21255829957202
H           96.41073271242682        7.94160083617989        5.44878955545667
H           99.50860825310583        4.99696323970745        5.96868605255805
H           99.49333220406787        3.02376266748157        4.49591319434808
H          101.01834940371012        3.77884252916054        2.50386255508118
H          102.88145370960815        2.25607037291172        1.32025333900454
C           58.81798100393120       -0.08163779614157        0.04852441298831
C           57.58913386633909       -0.08070294952776        0.04446181264289
C           56.24530306407987       -0.07593378038774        0.03910803141213
C           55.02094764892825       -0.06609221871251        0.02992900318946
C           60.16174619167078       -0.07518979489826        0.04651488496218
C           61.38621144801193       -0.06378161077173        0.03745390506120
C           74.86825631682805        0.10533934338144       -0.10051203306365
C           73.63922597285735        0.10644492611194       -0.10987298174088
C           72.29566011617202        0.10294336436243       -0.11449265905190
C           71.07096965224044        0.09349029671745       -0.10998760115079
C           76.21175648069669        0.09951838647290       -0.08730091859274
C           77.43635481200343        0.09123183377350       -0.07015101093024
C           90.91850187474506       -0.02768452082411        0.11067056032032
C           89.68963490498251       -0.02359142085189        0.11263141801704
C           88.34587219585030       -0.01644311778407        0.10788057148382
C           87.12135761266359       -0.00736669316686        0.09736779744297
C           92.26238486238022       -0.02875751373789        0.10151184306137
C           93.48674504381334       -0.02669782739980        0.08737112577755
Zn          66.22882424655809        0.01733961625997       -0.03957999490838
C           62.79024145872529       -0.05111131800112        0.02821883480608
C           63.43807283364307       -1.03576236278078       -0.74588507401025
C           62.76354366490992       -2.02193601109785       -1.53573927714909
C           63.72279598449747       -2.76510470564620       -2.14590974739829
C           64.99325005141493       -2.24529137162480       -1.72494133307086
N           64.78263831721172       -1.18849580594736       -0.87970475996428
C           66.24109346914953       -2.72649146969543       -2.13955375819749
C           66.24471989801357       -3.90110367086036       -3.04513455512837
C           65.68679599556053       -5.11727474634092       -2.64067838637970
C           65.68536146298139       -6.21054802692787       -3.48630058896840
C           66.23302945273026       -6.11645591101293       -4.77163685985818
N           66.24857167985607       -7.25317553694095       -5.56809529012013
C           66.33722530215751       -7.11452078115851       -7.01569170087428
C           66.80013843213351       -4.90536697683279       -5.17811784912724
C           66.80347295266012       -3.81723532414036       -4.32167114509410
C           67.48384918476455       -2.19441659024363       -1.77606165887808
C           68.75918568820647       -2.72893063132681       -2.16219398718293
C           69.71123054549153       -1.94161665548249       -1.59798702878014
N           67.68447125871032       -1.10207864238402       -0.97398168070409
C           69.02749489710354       -0.92574608162279       -0.85470203469562
C           69.66706834463183        0.08257344099562       -0.10413216107883
C           69.01885928430009        1.07023112624483        0.66650602904067
C           69.69305099278849        2.05887221401160        1.45344488092368
C           68.73360281461325        2.80529334065110        2.05947443922422
C           67.46328165067592        2.28462150217788        1.63945208483334
N           67.67431336662005        1.22437053363036        0.79821109771112
C           66.21553825364437        2.76677022700740        2.05287207713757
C           66.20887832736224        3.94747687817418        2.95007175076104
C           65.64084285324475        3.87444356862972        4.22314835334263
C           65.63133555992897        4.97136163660909        5.06812089342579
C           66.19475751961281        6.18135694298126        4.65319363739868
N           66.16190155464267        7.32805953297637        5.43365169425580
C           66.03854205319927        7.21284429453121        6.88047212914866
C           66.75585153154771        6.26317045428349        3.37287818302521
C           66.76692617282752        5.16110680406765        2.53886064763777
C           64.97276522749331        2.23130490629910        1.69321604871286
C           63.69711378951220        2.76590263376196        2.07837946835621
C           62.74545539459142        1.97497724498533        1.51861138314225
C           63.42961677017291        0.95775783956557        0.77800319171767
N           64.77262679192042        1.13588715921434        0.89551398914537
H           61.69275703998708       -2.12210290219879       -1.61630300510891
H           63.58174804373106       -3.58349733641963       -2.83345019837086
H           65.26753700443986       -5.20770298517968       -1.64441220521347
H           65.25738581223973       -7.15144589708354       -3.15610217838790
H           65.55039780261296       -7.93231552864277       -5.28978703184269
H           65.57721044987609       -6.42605041150604       -7.40187713157846
H           67.32617961430257       -6.75127466808599       -7.29666683644752
H           66.18911886358369       -8.09959930977687       -7.45817562736095
H           67.24030819856135       -4.80464426985520       -6.16260343922063
H           67.22892095814595       -2.87711013436294       -4.65643023854251
H           68.90814573609380       -3.60468857084690       -2.77307976248273
H           70.78297063406795       -2.03928956859924       -1.66815725692536
H           70.76374310511711        2.15895298542333        1.53526248734887
H           68.87437974025001        3.62628451558056        2.74396520212112
H           65.21694243645192        2.93588478217864        4.56386262605105
H           65.18323043243529        4.87833815151139        6.04979700936025
H           66.86155321760646        8.00727624267461        5.15927935919728
H           66.79658407519783        6.54030976517837        7.29830308924075
H           66.16360958867122        8.20726195965142        7.30911715925890
H           65.04655561407512        6.84255281980196        7.14236805292092
H           67.18232725576260        7.20250627661314        3.03671651312051
H           67.19498389088612        5.24322398894888        1.54570109512038
H           63.54750815676606        3.64423008883302        2.68530568728011
H           61.67372941618188        2.07190846650774        1.58961684420937
Zn          82.27844292238512        0.04215646871821        0.01350416742437
C           78.84001681166787        0.07828790422451       -0.04841914781713
C           79.48673050027391       -0.94192093481018       -0.77655994144308
C           78.81150932590572       -1.97848592739056       -1.49858163079314
C           79.77000590603919       -2.75460516646987       -2.06751158139151
C           81.04045585560536       -2.19197651233359       -1.70591883692772
N           80.83093273947374       -1.09630108932130       -0.91093592437943
C           82.28762411629873       -2.69844748999852       -2.09041958577335
C           82.29309281482047       -3.87072580758521       -2.99867177022523
C           82.88643276624491       -5.07465486597643       -2.60896439506820
C           82.89559629416497       -6.16578907777545       -3.45731113851273
C           82.32160838684270       -6.08123780269263       -4.73161418700794
N           82.31629289997775       -7.21625164954226       -5.53034247544284
C           82.20193049951848       -7.07727042315420       -6.97617245080618
C           81.71965942753938       -4.88221626622608       -5.12356096102393
C           81.70762163060444       -3.79689465853520       -4.26377992337868
C           83.53176874407229       -2.19263119731970       -1.69425015563175
C           84.80575174569718       -2.68218374617158       -2.13952925893916
C           85.75919404533199       -1.92949382742080       -1.53174291841743
N           83.73397852299095       -1.14189055043326       -0.83919245703233
C           85.07717661455531       -0.96699310806559       -0.71948724315551
C           85.71751144330621        0.00442330250442        0.07757335538467
C           85.06975451812629        0.98947594952699        0.85143960904942
C           85.74190634166835        1.93926111585469        1.68633922201264
C           84.78329906101823        2.71595020649106        2.25465775450049
C           83.51642464508973        2.25360785275402        1.76231765058261
N           83.72713933419980        1.19445984753751        0.91995553816941
C           82.27004597728083        2.79086582843954        2.10713671032388
C           82.26769688682047        3.97300667431084        3.00236243276414
C           81.62709150172086        3.93121507160262        4.24188427173168
C           81.62661416044924        5.02891377749001        5.08602923412191
C           82.27223072428950        6.20819334777383        4.70405615603637
N           82.25655964657781        7.35585794378115        5.48415272926631
C           82.06677899228879        7.24484856370160        6.92435176380203
C           82.90434842426575        6.26003376138160        3.45569265003996
C           82.90625647766110        5.15704252574071        2.62292968689939
C           81.02705599307329        2.30943974847713        1.67917103976229
C           79.75648375980342        2.90091306007304        1.99098134685775
C           78.80294839235161        2.14107759547388        1.39251573186020
C           79.48171777237950        1.08680460278590        0.70028387141213
N           80.82317209126508        1.21376430299167        0.88253586516902
H           77.74093251528933       -2.09683280404152       -1.55235561230352
H           79.62945740214442       -3.63960360246771       -2.66695586149918
H           83.32773958568228       -5.15784655187384       -1.62170442881415
H           83.35021723484883       -7.09775536550748       -3.13795405788711
H           83.03256761736213       -7.88161535118597       -5.26472134353718
H           81.20308931423901       -6.72789603635328       -7.24045085518877
H           82.94599545662986       -6.37767647224766       -7.37418134574518
H           82.35664322807231       -8.05992045782886       -7.42202820211985
H           81.25873312017441       -4.78894445207349       -6.09934427118228
H           81.25374045213859       -2.86611317443258       -4.58696607266039
H           84.95317282492336       -3.48880789524012       -2.83954855364136
H           86.83048546788120       -2.00838173699262       -1.62761951280623
H           86.81023561437264        1.99418363791221        1.82334138148677
H           84.92177501584186        3.52183453005075        2.95735295823523
H           81.13851797501795        3.01590615870743        4.55829889314220
H           81.12142956663084        4.96057229320086        6.04168706274044
H           83.00014966281618        8.00037240554890        5.24346881670832
H           82.77495195804937        6.53757001484314        7.37136163262304
H           82.21939988761588        8.23196205534517        7.36103103947587
H           81.04871258168068        6.92039888719663        7.14329337223817
H           83.39461432309552        7.17631808516907        3.14376036772222
H           83.39177146304550        5.21561655430858        1.65483758365834
H           79.61255743275655        3.79259942113862        2.57957805033331
H           77.73388034397264        2.28226531967093        1.40713821512576
