254
 energy: -463.345283268543 gnorm: 0.000421872892 xtb: 6.5.1 (b24c23e)
Co          39.11223970993746       -0.02215087681745       -0.11498269501658
C           35.74712697470574       -0.07510305574830       -0.35390633301357
C           36.43129907142314       -1.26581478030865       -0.46669231280880
C           35.79004362344062       -2.53012579556967       -0.66354138548291
C           36.74065160390584       -3.47793762450921       -0.49086298926519
C           37.96723651164481       -2.79103763657088       -0.20979080732817
N           37.77371687696596       -1.43322946963332       -0.23347926077962
C           39.14428831358121       -3.42306149587262        0.16813627280313
C           39.15760564729910       -4.89990215133085        0.30884151319523
C           38.96802918105113       -5.71886300511468       -0.80383684076924
C           38.98513669881650       -7.09947214086521       -0.67685871680169
C           39.18791713054294       -7.67571376435783        0.57484029416598
O           39.20909710968177       -9.02307257181345        0.74465484376607
C           39.37704080868384       -6.86760303031276        1.69440173330523
C           39.36487996840807       -5.49066661618737        1.55690450870052
C           40.31641400866770       -2.71773034366352        0.39119343502839
C           41.57060290083182       -3.33786102201559        0.69752398510380
C           42.51787924790084       -2.37499668302878        0.59965612617954
N           40.49143936176353       -1.37100635862380        0.16090357687783
C           41.84048773846014       -1.16882079823816        0.24362040789738
C           42.50406476508955        0.01934690930693       -0.07097074123038
C           41.81303815682713        1.20348106921880       -0.33562444133809
C           42.46121383237966        2.44111131718919       -0.63282970379326
C           41.49832876329295        3.39427017416178       -0.62730073079413
C           40.26386261843528        2.73340977860728       -0.32934778572692
N           40.46300918396777        1.37785267995822       -0.20533929151467
C           39.05974926705646        3.39236612671544       -0.12722287091871
C           39.04612826702134        4.87321284586138       -0.12345360823700
C           39.80955591718966        5.58585516099140        0.80478653198961
C           39.80261185382079        6.96917507545778        0.81522823189566
C           39.03334469712325        7.66363971999496       -0.11679683427156
O           39.05320242726272        9.02085048870662       -0.08187380037127
C           38.27218796502812        6.96679915409386       -1.05245562312790
C           38.27874643242795        5.58063893601745       -1.04956872527632
C           37.86820051697307        2.70011065932286        0.03926144745839
C           36.59379673008972        3.32770295413196        0.23367075790936
C           35.65854217720595        2.35405298477584        0.13313183904210
C           36.36364871485908        1.12966228055665       -0.09287137887692
N           37.71914455185367        1.34191317713512       -0.09134615730336
H           34.66728433565490       -0.09185689705511       -0.44336473709499
H           34.74055358232469       -2.65580433889484       -0.87768256362148
H           36.63031499181643       -4.54944830000123       -0.53071259807415
H           38.82324143936438       -5.27120476826990       -1.78075316557980
H           38.84357223997577       -7.73245184389530       -1.54633860022404
H           39.06755137553237       -9.48571436279145       -0.09215673853540
H           39.53120347475733       -7.32976355670068        2.66161384376370
H           39.50260263981775       -4.86134147031477        2.42898821064926
H           41.70111167889548       -4.38279000300199        0.92702383149797
H           43.58328854807401       -2.45923406963549        0.74155384067788
H           43.51926281994304        2.55101536615428       -0.80827629317911
H           41.60218018891194        4.45080273786778       -0.81354270871423
H           40.40011751835667        5.04545498144378        1.53610708625574
H           40.38712253281390        7.52408472411116        1.53860958658598
H           38.48663338609332        9.39941842902877       -0.76748451348214
H           37.68013870492286        7.51142285420104       -1.78018125152158
H           37.69749763852322        5.04012186292749       -1.78834883515350
H           36.44717545432196        4.37985133585272        0.41669919512456
H           34.58568972925858        2.43654827814548        0.20583923298492
Co          94.65944728493932       -0.01064436489070       -0.07845814555326
C           98.02063527164430        0.02100609396719       -0.33679393677263
C           97.32889178699961        1.17422704069487       -0.63882951499172
C           97.95798960876277        2.39480067339533       -1.04240745863728
C           97.00138211989074        3.35218594835154       -1.01298868912750
C           95.78410465299234        2.71211132662852       -0.60807040395000
N           95.98708508924260        1.36857374290659       -0.42379376767286
C           94.61294867609328        3.39045572639114       -0.29399103562801
C           94.59502493258078        4.87162548309834       -0.37090699953696
C           94.74657388136193        5.51840031200400       -1.59707653359938
C           94.72505237624736        6.90261159744134       -1.67371050406882
C           94.55692800257403        7.65633499147430       -0.51452010817833
O           94.53313276926757        9.01373468583341       -0.54353660845544
C           94.40683133999670        7.02118532846196        0.71692241949180
C           94.42254981646634        5.63906938296747        0.78279699205233
C           93.45451633377745        2.72283203561642        0.07137985920274
C           92.20758976857609        3.37455745857239        0.33996239819736
C           91.26458428757762        2.40440615338043        0.40608556600150
N           93.28012824866241        1.35695711122373        0.02826443338317
C           91.93717949627660        1.16402732557586        0.18316777781659
C           91.27111631564128       -0.05414188977391        0.01653163539398
C           91.96399752751523       -1.25857144565073       -0.13572025584201
C           91.32023209571062       -2.52362814976431       -0.29515447818291
C           92.28719597997809       -3.46696941807306       -0.18732703778882
C           93.51897273763414       -2.77277665175296        0.03779228848288
N           93.31433167643871       -1.41243731618928        0.00554315459774
C           94.72262023960698       -3.39556141979920        0.33518284264503
C           94.74173374770275       -4.86277994836268        0.52912134609843
C           93.95078117979450       -5.45606907368787        1.51677550765421
C           93.96379083587152       -6.82603054067906        1.70730406918071
C           94.76732696355523       -7.62880735072835        0.89931463128235
O           94.75293054809460       -8.96968076818153        1.11035573948212
C           95.55614390048098       -7.05240823195342       -0.09376712989014
C           95.54316025745983       -5.67782431015579       -0.27144536976955
C           95.90934673301545       -2.67975671181203        0.43234449991044
C           97.18287208742983       -3.26515173923071        0.73395776978877
C           98.11568854876846       -2.30860908862166        0.51314100630032
C           97.40931738597222       -1.13356246486999        0.10383242267980
N           96.05503366892650       -1.35273629680936        0.11656971587332
H           99.10066785643480        0.03046439221705       -0.42521072533342
H           99.00409257619081        2.49141899508293       -1.28610191657712
H           97.10282202781886        4.40416862360574       -1.22500618631915
H           94.86451483996476        4.93221352724229       -2.50161182830764
H           94.83647584411328        7.40111034073827       -2.63065556300210
H           94.64556206782348        9.34921082224184       -1.44307651891043
H           94.27991776327468        7.62023320004570        1.61015980253111
H           94.31592467686656        5.14460422289073        1.74178738497655
H           92.07727151855637        4.44020594189096        0.43476907945407
H           90.20445145168739        2.50399553709866        0.57499716110895
H           90.26241742276702       -2.65640120734054       -0.45553785176847
H           92.18714166174649       -4.53786251357405       -0.25748425249327
H           93.33446609427533       -4.83063501899700        2.15286400264777
H           93.35813190195884       -7.28744956803297        2.47743995482869
H           95.34436444244997       -9.42957712921151        0.49953653240298
H           96.17485633747523       -7.68156329414630       -0.72467107643727
H           96.14597196682129       -5.23287956590128       -1.05529977402540
H           97.33123798281819       -4.27988265058248        1.06610978464974
H           99.18746229112519       -2.37328284707189        0.61408399316272
C           43.90745348461342        0.02955416445388       -0.09232583754082
C           45.13195937947331        0.03705619855027       -0.10719710358047
C           46.47438494213245        0.04518071844341       -0.11693375002690
C           47.70535856781132        0.04994195774781       -0.12047496215530
C           49.04289276465094        0.05315472423096       -0.11949986301250
C           50.27401051829958        0.05505444311953       -0.11362338535575
C           51.61605784548210        0.05370947631825       -0.10681620040729
C           52.84106046925292        0.05035818024279       -0.09829445911135
C           62.42808467268754       -0.05099335500727        0.01699297202013
C           63.65382945653110       -0.06115038660042        0.03096254957884
C           64.99410222765506       -0.06855317589455        0.04163911802286
C           66.22628489198424       -0.06967365136235        0.04721756370295
C           67.56180910469553       -0.06863464970139        0.04645924228037
C           68.79401379152297       -0.06418704286735        0.04169052676736
C           70.13417784713961       -0.06020313864951        0.03136839814275
C           71.36008625606220       -0.05307688084481        0.02152190700063
C           80.93817440467133       -0.09490824524358        0.02216294305746
C           82.16417140234702       -0.10381860061072        0.03212068648621
C           83.50421712123941       -0.10893612502030        0.03846292768856
C           84.73649859793971       -0.10916341608978        0.03873308488131
C           86.07202189161319       -0.10394062031152        0.03710431637611
C           87.30410731886305       -0.09470741562879        0.03140364228770
C           88.64456446928529       -0.08404059805472        0.02733543938977
C           89.87015567745578       -0.07024336939578        0.02243104130291
Co          57.63566022257694        0.00874614460970       -0.05310934537649
C           54.24299952804039        0.04243985915319       -0.08896685409287
C           54.92476311740860        0.89667613720715        0.78283387671331
C           54.27646946067913        1.76440476463938        1.71311346774303
C           55.23565174789262        2.58078692235016        2.21543779730731
C           56.46421757410559        2.21376199707080        1.57965347812201
N           56.27069875904282        1.13219835065660        0.75317023038863
C           57.64693905018267        2.93587041844920        1.68047114663437
C           57.65200591446106        4.20848796214921        2.43486508290948
C           58.52153221154372        4.39188100110093        3.51364907529358
C           58.53018730919143        5.57917757556903        4.22300413181828
C           57.66896215182862        6.61143724404270        3.85422650040998
O           57.70847000160298        7.76511943878002        4.56765668269257
C           56.79857404458522        6.44431161909586        2.77926273938295
C           56.79013102531511        5.24752837280201        2.08045687349995
C           58.82560347063529        2.49336182626490        1.09571883727250
C           60.06209162921709        3.21435799393564        1.12121138184720
C           61.01602579760797        2.37068735775134        0.65608271648099
N           59.01021633826411        1.24766565637532        0.54108947836014
C           60.35624087107796        1.14583024497149        0.33436431954684
C           61.02820648910787       -0.03344733490584       -0.00430512309176
C           60.33607676126340       -1.19196998692252       -0.37211959502507
C           60.97288915787901       -2.43051632516995       -0.68764112286686
C           60.01422612572703       -3.23888365269081       -1.20329683761884
C           58.79780110821934       -2.48437340174518       -1.20950105734487
N           58.99644607057292       -1.25220596381345       -0.63117598244566
C           57.62647910622990       -2.88884792199011       -1.83551004542754
C           57.62683795753994       -4.14663863074000       -2.61468175553368
C           56.74133784304463       -5.17877871089356       -2.30108445610101
C           56.74578880178241       -6.36015203245886       -3.02577682291195
C           57.63592073385471       -6.51799411228866       -4.08586635907729
O           57.67146211524511       -7.65607362565729       -4.82426806861231
C           58.52197259415751       -5.49274694143971       -4.41298751880056
C           58.51733166341481       -4.32135431798274       -3.67763013707999
C           56.45624780742342       -2.14562929477586       -1.74870436987877
C           55.23209366761174       -2.48505841860063       -2.40811301189505
C           54.27714676443227       -1.66373830976186       -1.90604459680146
C           54.92456537562766       -0.81744626271773       -0.95559761402676
N           56.26656471031134       -1.07116951180540       -0.91140861104833
H           53.22178846667420        1.74540571647402        1.93591014815292
H           55.13026579764735        3.36289235037787        2.94957921902849
H           59.18197205981072        3.58447039467789        3.80945511766673
H           59.19711970226492        5.72071334541818        5.06443305199331
H           57.07178424554822        8.41044472936879        4.23198555849241
H           56.13332013126004        7.25179876425757        2.49292035669938
H           56.12217306126720        5.12450636989445        1.23521279309899
H           60.17618923613146        4.23271624471288        1.45526345207191
H           62.07375157451047        2.54515740445569        0.54161641927348
H           62.02031909955164       -2.63662203245560       -0.53675381760336
H           60.11213660868049       -4.25443966026605       -1.55084314053636
H           56.05757460487182       -5.06327033985699       -1.46749823718052
H           56.06195029709739       -7.16277975936786       -2.77128779822012
H           57.01761922759728       -8.29796554060784       -4.51614430461572
H           59.20476213946737       -5.62709751710620       -5.24280083148943
H           59.19791319281018       -3.51917298280370       -3.94016814692839
H           55.12612587904497       -3.25496883666720       -3.15492911702259
H           53.22600664696292       -1.62698252177738       -2.14289204921744
Co          76.14937424280853       -0.05246016200377       -0.01071615393970
C           72.75965613339503       -0.04331427613861        0.00076080160262
C           73.45046861590073        0.82019896079575        0.85808696640629
C           72.81380754193937        1.68452452543760        1.79935521338457
C           73.77286376563941        2.52195466592549        2.26697728593296
C           74.98953215854810        2.16855554810114        1.60141667640893
N           74.79010509804918        1.07744356475664        0.78920551784879
C           76.16464521657703        2.90780285302700        1.66149953924213
C           76.16701286032524        4.19292807431569        2.39325763017333
C           77.06020922486178        4.41266219791599        3.44566480693420
C           77.05994399830159        5.61068518368363        4.13672336720843
C           76.16570751164853        6.61745059876933        3.77587822050377
O           76.19605470337666        7.78160605962113        4.47194316134867
C           75.27212204603086        6.41445893132398        2.72629237407105
C           75.27281866900121        5.20713406270542        2.04615356691869
C           77.33686717087318        2.46608869395087        1.06169537061764
C           78.56929575132662        3.19415231075445        1.05539925470221
C           79.52296285642620        2.34381133950828        0.60103428923531
N           77.52165645165803        1.21054219670732        0.53002536673712
C           78.86617666590087        1.10884187849690        0.31451033919533
C           79.53885438673284       -0.07860919011066        0.00383310028084
C           78.84558737075842       -1.24434998293322       -0.34075914737124
C           79.47936411228265       -2.48667146752280       -0.64634899332537
C           78.52139431740247       -3.29239297219827       -1.16874240641550
C           77.30813303242273       -2.53364747534048       -1.18521394287822
N           77.50774678152987       -1.30093570961055       -0.61050658740223
C           76.13639379594233       -2.93364788848907       -1.81611137347576
C           76.13563649954847       -4.18708580404212       -2.60097562702039
C           75.23873561086597       -5.21387142733099       -2.30146362079337
C           75.23912564162629       -6.39058632297981       -3.03338215439244
C           76.13709472367965       -6.54965138824926       -4.08675975496168
O           76.16815850509883       -7.68248981995063       -4.83275120191342
C           77.03605354254087       -5.53074436917350       -4.39849588633137
C           77.03530431093884       -4.36395469454276       -3.65598171185897
C           74.96555290189696       -2.19298405023293       -1.71980803671392
C           73.73535376849708       -2.53228795507122       -2.36842490689530
C           72.78010873071261       -1.72820078415158       -1.83931784409825
C           73.43416431526089       -0.88912432488393       -0.88706763453898
N           74.77838791953853       -1.12798614101994       -0.86892066698593
H           71.76621398134515        1.65022411096413        2.05181084917790
H           73.67462694551637        3.30860479994900        2.99725305591769
H           77.74551562428010        3.62465899195620        3.73713778721551
H           77.74464104875013        5.77998610177020        4.95851570169202
H           75.53595097559673        8.40727363935407        4.14433458922059
H           74.58123409812299        7.20215917713774        2.44564362081371
H           74.58603704901554        5.05584979133362        1.22081007932061
H           78.68193016785960        4.22057301338002        1.36429524228726
H           80.57870426896338        2.52048438817828        0.47257355944833
H           80.52479832156349       -2.69677279863725       -0.48743280376078
H           78.61813050854276       -4.30921600841211       -1.51293262477684
H           74.54941936775313       -5.09807410555634       -1.47251243239161
H           74.54589416047418       -7.18854457425421       -2.78995833421628
H           75.50448268281892       -8.31979313977128       -4.53627777869939
H           77.72540975738420       -5.66636376532244       -5.22263669033677
H           77.72549250241121       -3.56645700794028       -3.90740747736902
H           73.62518520708103       -3.29100517048651       -3.12597837634966
H           71.72535372671186       -1.69782261044972       -2.06048056156404
