130
 energy: -241.545929750744 gnorm: 0.000635224100 xtb: 6.5.1 (b24c23e)
Zn          14.45057634101942       -0.00221421135491        0.01203298814816
C           11.04551261140386       -0.00100880420175        0.17194526205708
C           11.67125079891471        1.23318448512815        0.29791127905530
C           10.99363648992968        2.48902420553865        0.46199194235881
C           11.94922455097456        3.44715478271326        0.55062340753685
C           13.22421588670749        2.78616061716593        0.45302881855452
N           13.01973839002819        1.44753674630420        0.28935307673727
C           14.47362067065199        3.41635207685265        0.49827485046697
C           14.48166181471908        4.88536925596725        0.71327852933012
C           13.95059766575590        5.43129511819241        1.87853819608808
C           13.95446125403020        6.81095244970050        2.08017794399904
C           13.37438714514699        7.33030917198644        3.34369455219351
O           13.42239304409251        8.66669099665086        3.44681303880565
O           12.89890037576584        6.63980976757020        4.20861731337188
C           14.49117015036139        7.65771415179529        1.11029029864671
C           15.02076928074284        7.11701424019886       -0.05083569336131
C           15.01845660986213        5.74345905820506       -0.24952769685983
C           15.71399856163854        2.78283829274386        0.36523348795408
C           16.99276537941708        3.42954435444511        0.47195182994132
C           17.94030564202778        2.47375317805187        0.29515655855691
N           15.90949077312392        1.44652766479973        0.14005409622321
C           17.25156519977810        1.23367077198811        0.08825074172244
C           17.88457899523247       -0.00557576176025       -0.13740023791137
C           17.23276268216793       -1.24251166562538       -0.31629536715059
C           17.89868483602396       -2.48310923683473       -0.58432935148094
C           16.93742498916805       -3.43687485548498       -0.68146655467124
C           15.67373418468708       -2.78823925719615       -0.46399569629703
N           15.89041910121178       -1.45219982320924       -0.25679128502202
C           14.42558949878872       -3.42047205918984       -0.48155441594358
C           14.41022203566705       -4.89043309462535       -0.69153178798849
C           15.03192184993399       -5.74544507789095        0.22115176750408
C           15.01021046861591       -7.12033516699606        0.03112841412622
C           14.37020367240784       -7.65930543739440       -1.07223193174261
C           13.74685586937751       -6.81560894775212       -1.99303055307847
C           13.07146240105946       -7.43084026110303       -3.16237076715280
O           12.50038238289967       -6.53815483166046       -3.98468906236309
O           13.02534448326860       -8.61557181786805       -3.37537989049312
C           13.76729823071992       -5.43563394576030       -1.80102459074971
C           13.18646412785933       -2.78925595012813       -0.31755455173745
C           11.90796909623872       -3.44996524999229       -0.28855922110661
C           10.96564943710842       -2.49133960417702       -0.10806509465870
C           11.65607460433905       -1.23547684500224       -0.01395003490123
N           12.99876512047220       -1.45013538438246       -0.13798686420196
H            9.96125083060757       -0.00120868084950        0.22598030824926
H            9.92236808634885        2.61064666678804        0.49648938772726
H           11.80759335455637        4.51015633853742        0.66244043746915
H           13.54104380818070        4.78758173106164        2.64933544691438
H           13.02608790955036        8.92408524148650        4.29503528979943
H           14.49161001551912        8.72949414509104        1.26731908996448
H           15.43725219317141        7.76930445889180       -0.81012004251324
H           15.42245962936931        5.32877533033300       -1.16637163966703
H           17.14533971639700        4.47809286540500        0.67105981683338
H           19.01232757707517        2.58958884110190        0.31026002283119
H           18.96538303214608       -2.60040995223845       -0.69099774617652
H           17.06992450767976       -4.48548715776134       -0.89417914002160
H           15.52139006927777       -5.32706319132154        1.09355768854141
H           15.49323133698875       -7.77128281370580        0.75094096766744
H           14.34278371533535       -8.73078424070936       -1.23512730540575
H           12.08403558691282       -7.01875636518849       -4.71843652025846
H           13.29373644926257       -4.78223586260584       -2.52419445852484
H           11.75580684097945       -4.51327621699952       -0.38263467140579
H            9.89623457195633       -2.61304979508608       -0.03586725369002
Zn          30.49235277811620       -0.00233992819615        0.01190999425840
C           33.89730568408037       -0.05583247370973        0.16392867147356
C           33.27160947434946       -1.26357387705485       -0.11981885866343
C           33.94926794930262       -2.50433261851842       -0.37378212950109
C           32.99374003092293       -3.43892657918906       -0.60296241799773
C           31.71872175917185       -2.78213267290456       -0.48050412855600
N           31.92314883497585       -1.46332233506482       -0.19859616337099
C           30.46934964647983       -3.39246636771836       -0.64421132255347
C           30.46115235670937       -4.85128756532951       -0.91993235463519
C           30.99215362210500       -5.74734834901986        0.00366440627786
C           30.98781441964177       -7.11739963087029       -0.25531543882761
C           31.56804704690480       -8.02031170379535        0.76975524102960
O           31.52048042910537       -9.31725296599160        0.43132317673585
O           32.04332821972815       -7.64955737609913        1.81264853452224
C           30.45048750102420       -7.60172451607841       -1.44798819313713
C           29.92096300178686       -6.71196990820225       -2.36939166207426
C           29.92395258785517       -5.34862903673101       -2.10970684410133
C           29.22898911627302       -2.75003121575213       -0.56409399495508
C           27.95019262779155       -3.39591682375690       -0.67524422373498
C           27.00269554910465       -2.43472624082074       -0.53033811922196
N           29.03351075497492       -1.41342962128463       -0.34064000132783
C           27.69145521411688       -1.19503275730209       -0.32146770529212
C           27.05846028030727        0.05006215398148       -0.13066966953196
C           27.71024847357218        1.27748397064906        0.10476213029540
C           27.04423695398474        2.53748834783862        0.25719097615763
C           28.00551123605280        3.47077373540383        0.47629865912180
C           29.26916491404505        2.78662848924772        0.47055425290090
N           29.05251507740130        1.45611241809685        0.23039893379053
C           30.51727053709645        3.38993886509878        0.66057901081568
C           30.53259658296769        4.84802036514016        0.94145257871645
C           29.91065548540463        5.35870192168320        2.08291843400386
C           29.93228989524884        6.72041009865355        2.35158471007068
C           30.57245987107826        7.58969407799288        1.48438618479999
C           31.19592928585984        7.09237033555573        0.33885964619592
C           31.87124561200816        8.05529675336397       -0.56601904572074
O           32.44019243504955        7.47986449790398       -1.63574138947862
O           31.91917058301430        9.24447797983878       -0.37993080371040
C           31.17559459670126        5.72520018016733        0.07043240067033
C           31.75635217901056        2.73966592776545        0.61015477976376
C           33.03476738781711        3.35465745232603        0.85375565388631
C           33.97708911019332        2.38954931586199        0.71195196179159
C           33.28673353090529        1.17178029037309        0.39072418060026
N           31.94408825168349        1.41524652058837        0.34292687045818
H           34.98154588944819       -0.07334296925987        0.21552114449940
H           35.02052809441594       -2.63065348090733       -0.38015687173873
H           33.13547626420149       -4.48030693887804       -0.84373350843044
H           31.40203098853185       -5.39011682821330        0.94207614970712
H           31.91691715349767       -9.83711387307038        1.14922047084440
H           30.44941926256471       -8.66618742280597       -1.64869652168251
H           29.50397942149334       -7.08109331630753       -3.29962492585487
H           29.52013816681720       -4.65769459022068       -2.84136675438713
H           27.79749333718365       -4.45192839825299       -0.82981915765516
H           25.93067802800584       -2.54898181070195       -0.55459885466051
H           25.97754787174056        2.68319048775217        0.19447636887992
H           27.87303054654446        4.53142616509655        0.61715903251649
H           29.42108086798108        4.67871386025441        2.77114419084339
H           29.44904905724095        7.10108071654976        3.24419057823212
H           30.59978928019739        8.65573591536528        1.67974093278760
H           32.85672443821503        8.17344081022802       -2.17253940690452
H           31.64935066790694        5.34329982673261       -0.82615989200054
H           33.18683658156000        4.39043102926709        1.11198487985185
H           35.04645414494092        2.48096464431805        0.82045038270964
C           23.08558609735500        0.04428751531678       -0.20956685310117
C           21.85735553572960        0.02528758125436       -0.21236312184326
C           20.51308362713993        0.00851309287996       -0.20327741322975
C           19.28929029316744       -0.00415190405669       -0.18147745392260
C           24.42985273194758        0.05748688625879       -0.19446640600568
C           25.65367283349269        0.06303342850933       -0.16941833425887
