448
 energy: -825.748893817981 gnorm: 0.000684598049 xtb: 6.5.1 (b24c23e)
C          100.71347230375633        0.03466035446710       -0.42620301936434
C          101.33777604258955        1.23735547883748       -0.72999421155277
C          100.70208811765313        2.46948713671918       -1.05098477123111
C          101.67678039667236        3.40231785568642       -1.26719650073639
C          102.94011989432515        2.76730305169646       -1.09464426060677
N          102.68438796978575        1.46649543508548       -0.76597086162194
C          104.21091542790087        3.34125314089826       -1.21030305055566
C          104.26273243817216        4.76973226476584       -1.60779326878046
C          104.85116084428358        5.71349167544644       -0.77009602905982
C          104.90015337649743        7.05645837979042       -1.14104832199639
C          105.54125745988431        8.01401417005750       -0.20494667354474
O          105.53000812356765        9.28095362404232       -0.64397918914976
O          106.03213348497607        7.70762732658766        0.85142717745528
C          104.35876602421220        7.46548570999054       -2.35981918091788
C          103.77367708237868        6.52802275724708       -3.19631507668024
C          103.72376496591480        5.19151706839820       -2.82565314939322
C          105.41894567074166        2.67745138747448       -0.98169055510537
C          106.72332086551179        3.27951106419669       -1.19205757524565
C          107.63400420050576        2.33570576304622       -0.87753437907057
N          105.56057159522653        1.38944578790118       -0.56464666391811
C          106.88704100767549        1.15834079459292       -0.47942407360918
C          107.51075932137111       -0.04196378217219       -0.08430593640757
C          106.85857593465833       -1.24300811999147        0.25093557710240
C          107.48136857696556       -2.45879611778732        0.63858020418937
C          106.50143122363721       -3.38741202416238        0.85325129044006
C          105.24599558266141       -2.76211728484111        0.61571391283375
N          105.51372506488347       -1.46851785553498        0.25353414323939
C          103.97863054938119       -3.34875566553898        0.69460835336024
C          103.92790536904198       -4.77376510219368        1.10622060738124
C          103.40830196864100       -5.74096028756888        0.24285689042385
C          103.35863658549154       -7.07482769473961        0.62323569303192
C          103.82399565374845       -7.45962874702660        1.86950084805132
C          104.34472253550116       -6.50239157753877        2.74150204029881
C          104.83254183855577       -6.95399851532785        4.06902261345872
O          105.32189366412749       -5.96211794128984        4.82720169630699
O          104.80378124278086       -8.09600788936426        4.45030784383041
C          104.39699280318810       -5.16357059458374        2.35876638608738
C          102.77141299387937       -2.69699328158070        0.42423764972043
C          101.46035387975280       -3.31022574269339        0.57357484146529
C          100.55660638434921       -2.36094298004569        0.25870573467996
C          101.31372788395278       -1.16719767090489       -0.07506558250481
N          102.64342920808515       -1.40654795274163        0.03514617921092
H           99.62870841347792        0.04834522921172       -0.45674650691712
H           99.63436786336923        2.61233519744337       -1.09916955545532
H          101.53788551078969        4.44267283451715       -1.51285425749151
H          103.39891494372333        0.77499773508757       -0.56484670073290
H          105.26501558817355        5.41576992684795        0.18712680477330
H          105.96452000437647        9.84136715672679        0.01926896991194
H          104.39900421015099        8.50904889511551       -2.64742055280026
H          103.35479359578505        6.83801954629066       -4.14701268985786
H          103.27888760533997        4.46189086429567       -3.49315849186137
H          106.89798476204534        4.28069000646674       -1.55111075622944
H          108.70899181956003        2.40199909062657       -0.92010209957154
H          108.54519564138009       -2.59866257966646        0.73762447413754
H          106.63422250808119       -4.41693371731964        1.14290707828890
H          104.80449856169788       -0.78229561181619        0.01749744531234
H          103.05529490168236       -5.44339602348740       -0.73816332621845
H          102.95613562056603       -7.81482651859629       -0.05906072311880
H          103.79177089115821       -8.49699767988369        2.18280828840051
H          105.61586882038056       -6.33760969977662        5.67310175861799
H          104.78725380619433       -4.42052176710294        3.04416753808497
H          101.28071830064950       -4.32415103142262        0.89304195949874
H           99.48002507587999       -2.42861435139660        0.25263940385368
C          172.94882644761122        0.12926782054636       -0.14564016096946
C          172.38537574679606       -1.12122492355273        0.07236479107203
C          173.08104322605902       -2.33646364391597        0.32591955460952
C          172.15383462045742       -3.32887531325966        0.47614363892534
C          170.86170137205835       -2.75290784015029        0.31055203797025
N          171.05211993276660       -1.42089661742029        0.07701032926435
C          169.62121944690233       -3.39495465547642        0.39653051652622
C          169.64925589936414       -4.85945624381275        0.63671383478505
C          169.07170692006983       -5.40228869475381        1.78109810046446
C          169.10073003074609       -6.77848794595708        2.00328131815246
C          168.46768876495770       -7.29721244371495        3.24196577530936
O          168.55563028786520       -8.62904187308159        3.37104154866015
O          167.92045211917204       -6.60978213094681        4.06573099418728
C          169.71016774762353       -7.62413735296832        1.07641956404287
C          170.28599265012599       -7.08627614654475       -0.06372596854709
C          170.25834072353274       -5.71624564876730       -0.28333507489407
C          168.37891178057984       -2.76781859690761        0.27819796600080
C          167.10893268465264       -3.46815798689719        0.34682198644090
C          166.14913824639760       -2.53151821024302        0.20417319806827
N          168.16844998381097       -1.43822492239998        0.07198921442181
C          166.83164773372442       -1.26429985040197        0.02952028179753
C          166.14454096534328       -0.04666794565829       -0.14944944824299
C          166.73457268308999        1.21350988028600       -0.36375204299475
C          166.04784996837157        2.43994461637760       -0.56608426720692
C          166.98020855638907        3.42364654648468       -0.74314454695617
C          168.26834126941822        2.82504093768411       -0.66649877400268
N          168.06789622729715        1.49009995790089       -0.43305217092198
C          169.50734933756246        3.46491030693859       -0.77454577237561
C          169.48243074287674        4.92677199723041       -1.02940227257338
C          168.90548719053393        5.43630811819390       -2.19472659863412
C          168.88212102501507        6.80365652160561       -2.43269377780749
C          169.43078143294667        7.67878974652918       -1.51035630016235
C          170.00922989545799        7.18190921122993       -0.34130497796898
C          170.58479876693940        8.15182490371474        0.62385510430327
O          171.11796050519177        7.57555297152363        1.71101352631365
O          170.58664604446068        9.34614664256563        0.46752518020857
C          170.03537522525860        5.80926493706866       -0.10369798324637
C          170.75090136684875        2.83644947362257       -0.65549892003104
C          172.02886263285060        3.51415348218176       -0.81235885788950
C          172.98206112635245        2.57817410326166       -0.63209817261568
C          172.28775082337552        1.32808966717968       -0.37748749471617
N          170.94611518755622        1.52023660727875       -0.40564150438041
H          174.03351870088980        0.16351973005637       -0.13445089111369
H          174.15382536019322       -2.42522396936171        0.38928753491702
H          172.34251438259068       -4.36769704284274        0.69348019497055
H          170.30328831893465       -0.75114265450064       -0.06389144703514
H          168.60590856887188       -4.75913874123685        2.51967314263088
H          168.12015739936663       -8.88799613339241        4.19936021525736
H          169.73010516159968       -8.69318723048997        1.24990809106931
H          170.75859564264010       -7.73769858313490       -0.79013363590222
H          170.69809029249916       -5.30435275903714       -1.18488833211937
H          166.98845383618098       -4.53121074254660        0.47759614945916
H          165.07941084363540       -2.66271947182501        0.20900241717551
H          164.97604744892615        2.54881033273787       -0.57764120250413
H          166.79442986739008        4.47278715610217       -0.90498233727734
H          168.81349311164877        0.81163973766356       -0.31744971369214
H          168.48774252849088        4.75248917341902       -2.92519774170911
H          168.43450466544198        7.18403749519500       -3.34377065998952
H          169.41995737540333        8.74950642814769       -1.68004409953258
H          171.47065933658183        8.27232375491617        2.28799934627915
H          170.47268331997998        5.42675926214074        0.81091849348291
H          172.15431504045011        4.56028963301746       -1.04085206379572
H          174.05431036291765        2.68973424960663       -0.67049794166868
C          108.91981398275993       -0.05567999953445       -0.02749908373226
C          110.13610902026116       -0.06090872786968        0.02011837633503
C          119.84286990180733        0.00564308973354        0.15557807607726
C          121.06123887037022        0.01207721946398        0.15591712476596
C          130.76329808325428        0.02972389767493        0.08256996620068
C          131.98186576563947        0.02900252814747        0.07679423224331
C          141.68503865062459        0.01882865734966        0.08694672635804
C          142.90362487472416        0.01910367632660        0.08767332109305
C          152.60530053768110        0.00365376335441        0.11365396136954
C          153.82364431651962       -0.00426860465629        0.11587603879073
C          163.51924005980399       -0.08298191930745       -0.06358889228602
C          164.73584300417718       -0.07445584788635       -0.11008832176362
C          111.54462494942486       -0.05581125031494        0.06529006487387
C          112.16167422496642        1.18502953031247        0.31212230672582
C          111.51001600731651        2.42802891380262        0.52031949903901
C          112.46895772797858        3.37037300838394        0.77194923694815
C          113.73588289478261        2.72624786611240        0.73788542070790
N          113.50033705069090        1.41043989258293        0.44268913173877
C          114.98830286915030        3.30918630152747        0.96652150677223
C          114.98833844132832        4.75011824507467        1.32390533417539
C          115.64069677085642        5.67552996679373        0.51382891843838
C          115.63779590187404        7.03029018375012        0.84315330357782
C          116.34859458507157        7.96770338089373       -0.06233976200146
O          116.27266602178662        9.24919528340742        0.32576512963978
O          116.94420374013497        7.63486724887335       -1.05481855113395
C          114.98151979734824        7.46889269833797        1.99319014001857
C          114.33470235849963        6.54914917316557        2.80354702555352
C          114.33505053498064        5.20117827144077        2.47334711258888
C          116.22003402660182        2.65787492348161        0.88473134235158
C          117.48713542614045        3.28598310538010        1.21368595467661
C          118.44138358307616        2.35940494624926        0.98909701630582
N          116.42427210362480        1.36866691977091        0.49727265188922
C          117.75767955709625        1.16779295563946        0.52866496369791
C          118.43573684941626       -0.00986977727736        0.15310519114696
C          117.81706359230041       -1.21680475362639       -0.22857812142325
C          118.46527123217544       -2.40069612135205       -0.66346729392833
C          117.50560681407545       -3.34877314754100       -0.89132048540791
C          116.24083359249884       -2.76966393858415       -0.59999526069474
N          116.47841473813739       -1.47600455521401       -0.22009933607263
C          114.98816257133160       -3.38908179629463       -0.69087025455585
C          114.99576429516986       -4.83024566792659       -1.04726803425815
C          114.36479475494910       -5.27905306431554       -2.20969079341263
C          114.37394029306446       -6.62616278200742       -2.54384500165926
C          115.01091177545582       -7.54157942070164       -1.72281142723209
C          115.64564272499393       -7.10550828385373       -0.55882508361868
C          116.31872268112015       -8.11705742223782        0.29455548570691
O          116.90938608799595       -7.59658691642620        1.38008324138678
O          116.34784276488986       -9.29665793577518        0.05398661549461
C          115.63819398372276       -5.75302542231983       -0.22423437614477
C          113.75442412293553       -2.77088180304800       -0.48277915867700
C          112.48130081094811       -3.46606032780876       -0.54596055840183
C          111.52743184363165       -2.53389076899189       -0.34353242192675
C          112.21788517739397       -1.27625599801885       -0.13987345345960
N          113.55341355511037       -1.45162794158093       -0.21333849514844
H          110.44340350944270        2.57640257894627        0.48386162034927
H          112.31337749096772        4.42040794851472        0.95800417257909
H          114.22171722252379        0.70553398925507        0.33334953888330
H          116.14536822857836        5.35402379587188       -0.39067386274540
H          116.75739142321834        9.79388086452082       -0.31554582582194
H          114.98125867230067        8.52168314336492        2.24819242043486
H          113.82651367846766        6.88228434950289        3.70135134112455
H          113.83852948968611        4.48618123777487        3.11986415770785
H          117.60762703386142        4.29211804795916        1.58110983762396
H          119.50639331383243        2.44568360783783        1.12995990071640
H          119.52914980295166       -2.50574687987492       -0.79601725957454
H          117.65879220603981       -4.35590558646112       -1.24293572549246
H          115.75808242195855       -0.80620242706224        0.02802013207619
H          113.87780794962576       -4.56220887926964       -2.86120838126126
H          113.88284542783387       -6.95923861526921       -3.45102779611178
H          115.02728047733318       -8.59729702735918       -1.96886091963236
H          117.32161732068170       -8.31849020779204        1.88202463887184
H          116.11938380374536       -5.41919947648326        0.68752514161282
H          112.35522538537393       -4.52368837963618       -0.71158466350990
H          110.45741279337328       -2.66250478682558       -0.32625290841400
C          122.46806351908923        0.01937472279733        0.15290848573981
C          123.09935430022485        1.27684472930974        0.22540171549231
C          122.46775595088623        2.54633405768046        0.23446034743172
C          123.43767248379292        3.49957416933413        0.38729110194819
C          124.69147301098054        2.83704860606758        0.48187743648491
N          124.43879870554539        1.49781420991783        0.35310809777392
C          125.94707402082996        3.42047713851921        0.69625297290020
C          125.96407065279952        4.88426333468658        0.93351392989278
C          126.70767865653319        5.72434821624974        0.10840554120878
C          126.72546806240459        7.10049145319013        0.33041242260408
C          127.54011496836489        7.94196747438298       -0.58225075199962
O          127.47546864132909        9.25208333208960       -0.30333572541224
O          128.20593966178862        7.51342434857846       -1.48957633627938
C          125.99614813504024        7.64832460422226        1.38569028716772
C          125.25691344345152        6.81475253965194        2.21016753778847
C          125.23868558804492        5.44510995161346        1.98801658046543
C          127.16788423034136        2.74299823102592        0.70379535894641
C          128.43661735947592        3.36418013914418        1.03884323896499
C          129.38123652968011        2.41526742876290        0.87251808166061
N          127.35985476968257        1.43426619673168        0.38080719697327
C          128.68980077681078        1.21780319763013        0.44081815314400
C          129.35677476402103        0.02507795938380        0.09254757517767
C          128.72232752848026       -1.18604605708784       -0.24918029538716
C          129.35026096793152       -2.38420255060384       -0.67390982764941
C          128.38041988162800       -3.33671676307713       -0.83175613595462
C          127.13038905723799       -2.74682843743182       -0.50162613287623
N          127.38464235576102       -1.44025163565708       -0.18162151825202
C          125.87715443309172       -3.37226629950239       -0.47297392870777
C          125.86137663312202       -4.83141618477013       -0.73821751704281
C          125.10548577483642       -5.35111298849159       -1.79211547512899
C          125.08995443952630       -6.71532354900468       -2.04632711686108
C          125.82647535991667       -7.57859589936768       -1.25244530773641
C          126.58494379954470       -7.07235630156575       -0.19581368474775
C          127.36161135501644       -8.02915499899842        0.63216451046828
O          128.07000300318373       -7.44262599315811        1.60827977987557
O          127.37346875477425       -9.22106547844507        0.46114686978665
C          126.60155443321398       -5.70271406200969        0.05883947587738
C          124.65930631458393       -2.74009027399759       -0.21583937198058
C          123.39612932965866       -3.44179658707470       -0.07827745069283
C          122.45167133780234       -2.49466342898035        0.10074119312437
C          123.13788348778057       -1.21931156760999        0.07441984128905
N          124.46518691272780       -1.39894048990191       -0.08323586969450
H          121.40784387147276        2.70581392905113        0.12560950031413
H          123.29800737791324        4.56775321809711        0.41784522052766
H          125.15021618530227        0.77472364870380        0.34888525876404
H          127.26881938007321        5.31831522605557       -0.72612195324443
H          128.02976317987944        9.73047895600413       -0.94112813067752
H          126.01197561665498        8.71773781635575        1.55737018769765
H          124.69156191294076        7.23263517934310        3.03547147101353
H          124.67156608921815        4.79853658098839        2.64843154704268
H          128.56474416043207        4.38079162765114        1.37342316628083
H          130.44380072829543        2.49086877135477        1.03586294918928
H          130.40770100115404       -2.49563241720688       -0.84691169435965
H          128.51785953596027       -4.35426614080755       -1.15902828162739
H          126.67555774437564       -0.75983754683472        0.06985637323706
H          124.53982052034537       -4.67567386131110       -2.42405251205410
H          124.50145588740178       -7.10287873540477       -2.87005684718520
H          125.82588766554771       -8.64683520236164       -1.43735780749003
H          128.54495324863885       -8.13201463268772        2.10038421695914
H          127.17742976471365       -5.31532349385267        0.89104449376420
H          123.27211590839168       -4.51247819575060       -0.09540566914981
H          121.39332277182403       -2.62464420217793        0.25699020440758
C          133.38836013374774        0.03088733218844        0.07533874367358
C          134.02364340165212        1.28636707206213        0.15316505194751
C          133.39620203073906        2.55790567308680        0.15582217086281
C          134.36737064692045        3.50788290079636        0.32042955661783
C          135.61776560336452        2.84116892621514        0.42910160779354
N          135.36224376551365        1.50283353381304        0.29540271726614
C          136.87232845567567        3.42025704611023        0.66025757741180
C          136.89085943338719        4.88326414458235        0.90195315578732
C          137.64792542790502        5.72350200898486        0.08930375211473
C          137.66742280264677        7.09883023721918        0.31610634148574
C          138.49711579001419        7.94056202313590       -0.58264996416848
O          138.43319466132789        9.24995643425938       -0.30004644119592
O          139.17366579147637        7.51285993166583       -1.48238313635027
C          136.92621054945786        7.64569559656378        1.36358190720378
C          136.17352722103817        6.81198179716417        2.17564278307590
C          136.15370442341811        5.44313916128797        1.94879722588432
C          138.09092822843590        2.73900373787031        0.68136079191936
C          139.35733261699468        3.35522181706414        1.03369649186377
C          140.30109738482247        2.40404370312542        0.87526846467692
N          138.28273525626415        1.43073439676053        0.35670445804340
C          139.61131635565641        1.21020121352412        0.43131287901921
C          140.27848683477961        0.01671381810176        0.08610981180227
C          139.64395629152528       -1.19213790630065       -0.26347580646711
C          140.27270696223749       -2.39199475655536       -0.68197311511859
C          139.30170299768989       -3.34154459307136       -0.85047276425478
C          138.05002002569358       -2.74786493260296       -0.53390452384605
N          138.30479893267088       -1.44234368042117       -0.21024148838858
C          136.79448176089414       -3.36944808365597       -0.52085503495356
C          136.77804246257051       -4.82847921013579       -0.78745036873905
C          136.03650087878040       -5.34490725029871       -1.85306294857281
C          136.02037773503483       -6.70886965492067       -2.10852216744653
C          136.74189855300492       -7.57512033597647       -1.30416402110411
C          137.48597190627765       -7.07213722328039       -0.23581459606499
C          138.24678295695281       -8.03217517393996        0.60305403909894
O          138.93850779392224       -7.44930820810725        1.59325366831489
O          138.26007840097191       -9.22364306929404        0.42900200728826
C          137.50335156241084       -5.70267651744759        0.01997931930755
C          135.57540132064199       -2.73426915872867       -0.27821055755273
C          134.30838507972396       -3.43245056893831       -0.15901236636859
C          133.36466021100102       -2.48304767658224        0.01162100324642
C          134.05507845589236       -1.20974820788139       -0.00145216791087
N          135.38345469636678       -1.39276752698198       -0.14408761483281
H          132.33833196046859        2.72102116475050        0.03390205403444
H          134.23091528794623        4.57649253058264        0.35017546638225
H          136.07107627917185        0.77722231361972        0.29943807213301
H          138.21850425229323        5.31821369341426       -0.73916258995423
H          138.99783421831603        9.72865367555173       -0.92846247136685
H          136.94342724286375        8.71448534477639        1.53896767715635
H          135.59893063261401        7.22908754441755        2.99493802485946
H          135.57601294207075        4.79627308989718        2.59970357835490
H          139.48448272660718        4.37025764778289        1.37338904211878
H          141.36178745137622        2.47584085445088        1.05197123079937
H          141.33160701802257       -2.50662704835354       -0.84351801912161
H          139.43956770301742       -4.35948677764298       -1.17634610593588
H          137.59512790008145       -0.75981260321862        0.03371614336431
H          135.48264852287170       -4.66712667544552       -2.49290086493340
H          135.44319079696220       -7.09395737584915       -2.94136580276347
H          136.74048540716731       -8.64322576045743       -1.48984366094898
H          139.40382063107191       -8.14066005836407        2.09175716923039
H          138.06825018887216       -5.31777043600475        0.86082192854741
H          134.18118498689245       -4.50265238729415       -0.18185922126538
H          132.30376781154783       -2.61028946553131        0.15215771597429
C          144.31017200648864        0.02049602892546        0.09236204956981
C          144.94532973617868        1.27574394675185        0.17366969331624
C          144.31754122752005        2.54718507777894        0.17760159930217
C          145.28843122451894        3.49724927360599        0.34274645782164
C          146.53917638311850        2.83085908169682        0.45004886327713
N          146.28390126163302        1.49244987995243        0.31616344911686
C          147.79399902626147        3.41128234701973        0.67604853435210
C          147.81103920585971        4.87489765739026        0.91482790193035
C          148.55957360780593        5.71593892371559        0.09523151093053
C          148.57569040959234        7.09186108849395        0.31890717306246
C          149.39544066167596        7.93468841855112       -0.58783874321658
O          149.33230648788660        9.24402431347287       -0.30474454890699
O          150.06363707996832        7.50799160012878       -1.49428732150133
C          147.83979101463217        7.63840336403737        1.37029803770450
C          147.09585585611194        6.80381809574411        2.18947321457477
C          147.07926012603969        5.43443660592720        1.96561832517716
C          149.01337914267506        2.73127530812136        0.69350597557870
C          150.28158713515933        3.35058648545004        1.03394849192975
C          151.22481229906288        2.39860427899396        0.87734045612524
N          149.20381501328993        1.42095609669025        0.37677241464619
C          150.53277543120379        1.20088898943127        0.44724229767607
C          151.19858053534179        0.00412087368673        0.11217078070081
C          150.56465918366041       -1.20684861644939       -0.23060464285057
C          151.19442647793369       -2.40815204396888       -0.64353345931879
C          150.22358989758959       -3.35788396961477       -0.81188533527246
C          148.97117250734706       -2.76283299580216       -0.50079808500933
N          149.22530813214848       -1.45661797596958       -0.17990158362976
C          147.71508692340262       -3.38346204679100       -0.49213583394708
C          147.69931309999046       -4.84243634277778       -0.75914777385302
C          146.96413048185516       -5.35797437351035       -1.82955050518380
C          146.95095374041455       -6.72155222648855       -2.08728326581227
C          147.66929884537149       -7.58824788698308       -1.28058450876103
C          148.40663682374606       -7.08619752372538       -0.20711902529824
C          149.16471057741089       -8.04665199201745        0.63371537803429
O          149.84991311407217       -7.46476337549488        1.62898897858871
O          149.18143881992177       -9.23770321064263        0.45689196406789
C          148.42078732092062       -5.71716336596212        0.05115479762034
C          146.49571282063692       -2.74686978347311       -0.25544141528183
C          145.22720353046185       -3.44352732618081       -0.14340651722635
C          144.28400306259161       -2.49307298070705        0.02393555495819
C          144.97619350803555       -1.22059955545375        0.01592983458145
N          146.30488177490594       -1.40518446045311       -0.12074210912930
H          143.25961899070086        2.71015799409458        0.05593447686098
H          145.15164238339989        4.56579265197654        0.37343944277734
H          146.99299383623946        0.76708469532060        0.32020362359284
H          149.12579755369146        5.31094938358344       -0.73636250345856
H          149.89050353103849        9.72352561549643       -0.93828313989415
H          147.85408922998326        8.70767312918703        1.54303865772218
H          146.52541475635653        7.22067083848227        3.01179718056257
H          146.50802812947859        4.78693939285427        2.62158272580553
H          150.41038139048149        4.36843409046193        1.36448726334025
H          152.28673466536526        2.47232014048476        1.04605039440990
H          152.25372090528072       -2.52349007754898       -0.80230204928202
H          150.36199880475419       -4.37675515111324       -1.13459262692777
H          148.51514178086185       -0.77314671896225        0.05994521464929
H          146.41329401911588       -4.67977000621242       -2.47153830979833
H          146.37894982659799       -7.10588957754739       -2.92404442974447
H          147.67067869655187       -8.65597291284138       -1.46843188944771
H          150.31392002754740       -8.15635251598022        2.12838118276576
H          148.98058552433787       -5.33296985333736        0.89572855894953
H          145.09868292609517       -4.51352067239232       -0.16863827749105
H          143.22224610089054       -2.61899286650330        0.15898479213283
C          155.23040501634114       -0.01395803929114        0.11316576668157
C          155.87493877479076        1.23812990083991        0.14919813612120
C          155.25424110858231        2.51330147468171        0.13430419965737
C          156.23363257433991        3.46129990771514        0.25307882522144
C          157.48315276782495        2.79032427205604        0.34726562001240
N          157.21747832193131        1.45030465609083        0.25647594037707
C          158.74666913307115        3.36953073156539        0.51889981177788
C          158.77997184758584        4.83966360468767        0.71216206863156
C          159.50495046040845        5.65056344971357       -0.15737789901704
C          159.54033835252221        7.03199367237509        0.02663353442175
C          160.33412555255182        7.84160834983303       -0.93210371959900
O          160.29263356923397        9.15849717598605       -0.68341202657595
O          160.96501179342724        7.38344802303333       -1.85007777352788
C          158.84758378433892        7.61423852461759        1.08811524184710
C          158.12601354261182        6.80974655401801        1.95600069921646
C          158.08996174388525        5.43489038628535        1.77147275774689
C          159.96238458493883        2.68248989527333        0.52057228978866
C          161.24452604652564        3.30569224741913        0.79586134657338
C          162.17691527853376        2.34261617869596        0.64359516352427
N          160.13458535154155        1.36026151681147        0.24757939022466
C          161.46415122104051        1.13360955962689        0.28361988287046
C          162.11189384387288       -0.08250667328267       -0.01227544300573
C          161.46528454199009       -1.30846933345004       -0.25958297103941
C          162.08125319556032       -2.53843283284291       -0.60457576900767
C          161.10244892589012       -3.49029889830779       -0.69426960674221
C          159.85859604576456       -2.86772990951357       -0.40197223108942
N          160.12563793745272       -1.54594482586744       -0.16807668363549
C          158.59796019383404       -3.47617235563690       -0.34262305177428
C          158.56913232931373       -4.94842525442841       -0.52229989809568
C          157.82366881129116       -5.52269722990606       -1.55490718006341
C          157.79960895205622       -6.89940490752017       -1.72895781476581
C          158.51746379375831       -7.72059746229455       -0.87554776681697
C          159.26533390418714       -7.15945464187393        0.16071284872270
C          160.02403355984984       -8.07124049019312        1.05374590045759
O          160.71639452111484       -7.43302721012641        2.00810737276847
O          160.03516379522705       -9.27096454663883        0.94859262013473
C          159.29012180839348       -5.77742159405353        0.33509882394201
C          157.38631431408635       -2.81645208787983       -0.13133112026211
C          156.11188478818320       -3.49400402042037        0.02363338434219
C          155.17909315326364       -2.52717835029242        0.14997909379765
C          155.88400735005254       -1.26348187364300        0.07768823682509
N          157.20938400800762       -1.46780506462145       -0.06148567686673
H          154.19443505549776        2.67933081990767        0.03460831416168
H          156.10381477780109        4.53113951476119        0.26053834623812
H          157.92258093188488        0.72106147207222        0.26479533958398
H          160.03798196374308        5.21726495336830       -0.99660880286910
H          160.83266045417687        9.61540907567233       -1.34859731055292
H          158.87775483090817        8.68759494821138        1.23078767686999
H          157.58898384620227        7.25467137199215        2.78607780774923
H          157.53707044989088        4.81106491706959        2.46500878373486
H          161.38970774445522        4.33413563464330        1.08396834101701
H          163.24382123106864        2.41527393561100        0.77786058328319
H          163.13751531405356       -2.67118029610662       -0.77070535563687
H          161.22939886561321       -4.52900413170096       -0.95189758604886
H          159.42388081253765       -0.84419500173844        0.04195534921327
H          157.27340064196551       -4.88094481733355       -2.23381424520967
H          157.21951710065304       -7.32981367354499       -2.53726637916934
H          158.51050249740683       -8.79775732561235       -0.99814010615922
H          161.18286887102880       -8.09319474781000        2.54613521700217
H          159.85843494499346       -5.34634360210874        1.15083038907073
H          155.97293100372909       -4.56262864489370        0.05147227130299
H          154.11723935855619       -2.63580490797686        0.29906580099384
