128
 energy: -233.474867358242 gnorm: 0.000655861117 xtb: 6.5.1 (b24c23e)
Ni          13.29048638817814        0.02313179050991       -0.07091765222756
C            9.89925692828771        0.08543655812988       -0.19337318812056
C           10.56661304317411        1.29102374122815       -0.13925842976482
C            9.90184662495399        2.55808450858207       -0.10928628055735
C           10.86155619824137        3.49530991637058        0.06834274395958
C           12.11456557184501        2.80065300939507        0.12913751406945
N           11.92412595359549        1.44910031801604       -0.01247714604536
C           13.33192732639692        3.41981460754704        0.38120531050270
C           13.35220692461327        4.88608731332604        0.59877580095328
C           13.72244922683030        5.40889024758579        1.84096887076136
C           13.74058668321245        6.77542955458060        2.04423455298240
C           13.39411393004023        7.64944240931769        1.00851866705307
C           13.42456520093014        9.10393868156620        1.24929792782800
O           13.73381475065828        9.60149403797468        2.30144297433812
C           13.02683555004479        7.12727312288316       -0.23390215166835
C           13.00407451156150        5.75845979555603       -0.43544255810306
C           14.53474637273609        2.72796573311365        0.42597118218704
C           15.80477517147775        3.36001350989926        0.62003050991730
C           16.74673061589153        2.39839896042683        0.47230852681797
N           14.69851987304681        1.38367009364247        0.17808516803866
C           16.05128900288945        1.18330900068485        0.18960271198899
C           16.70411408898939       -0.02143455390185       -0.08660939527865
C           16.01651979432522       -1.21582888618009       -0.31824885130409
C           16.67488139448280       -2.45405673081368       -0.58820483711870
C           15.70869107938256       -3.40085784242899       -0.65732585046077
C           14.46182732573394       -2.73648866587510       -0.42627116092630
N           14.66073615145666       -1.38604400003388       -0.25044547674671
C           13.23702364252791       -3.39003247305858       -0.38078603636901
C           13.21706392379098       -4.86563977365436       -0.50667839333149
C           12.55486633695863       -5.47306694728993       -1.57721423949471
C           12.53797060704829       -6.85097530886450       -1.69987641860397
C           13.17995430629682       -7.64972805926010       -0.75052003434688
C           13.17524276687118       -9.12026711117033       -0.85825412912584
O           13.71439408543810       -9.85102312483628       -0.06730391386262
C           13.84104084427516       -7.04212282674689        0.32205331843073
C           13.86182069636523       -5.66579924684590        0.44125618684131
C           12.03008601679305       -2.71626805633725       -0.24268804575778
C           10.75307620290921       -3.36575517745971       -0.18145726216198
C            9.81765203120426       -2.38822993583082       -0.15079370955725
C           10.52398983346505       -1.14390616335886       -0.17096773759093
N           11.88015969554509       -1.35294421134687       -0.19651851674924
H            8.81645560701702        0.10499721757026       -0.23342562152456
H            8.83527293397686        2.69053836404687       -0.19643383703276
H           10.74302046364913        4.56234724107022        0.16347434578434
H           13.98216690500972        4.73293799881018        2.64779203335483
H           14.02183065046165        7.18994489765297        3.00635787467557
H           13.13683569428306        9.71769106497119        0.36925121480810
H           12.76042902187693        7.79851475447894       -1.04389237033967
H           12.73046013482608        5.35587897650762       -1.40420829029303
H           15.94795537623942        4.40852108181692        0.82352971785301
H           17.81877054094124        2.48924275770986        0.53869209477554
H           17.74052468786001       -2.56807581716808       -0.70395730885919
H           15.81950013750609       -4.45429906687305       -0.85551895331767
H           12.06713349436194       -4.85511756199492       -2.32270498538022
H           12.02612420108403       -7.31407488163289       -2.53723834577676
H           12.62731260582776       -9.51049258559256       -1.74243620968485
H           14.33423778707296       -7.67043845350661        1.05594437760950
H           14.36568726207362       -5.19790436570192        1.27942248556610
H           10.60470275518292       -4.43313354939016       -0.16145320405802
H            8.74407506504120       -2.48078536117429       -0.11065748286154
Ni          31.86001742673696       -0.01550731113821       -0.07356250549022
C           35.25120325635873       -0.05892960884118       -0.20545430567064
C           34.58400094129993       -1.26009146597015       -0.32285428144432
C           35.24893451872719       -2.51846098866463       -0.47331744226300
C           34.28943760392183       -3.47159573925277       -0.42992164973916
C           33.03637422611162       -2.79283232622120       -0.27059317994719
N           33.22656368304848       -1.43483205711235       -0.21904274252873
C           31.81922648098419       -3.44181422678237       -0.10874580539153
C           31.79938756736160       -4.92414855532710       -0.10229624183704
C           31.43093052828574       -5.61894196736329        1.05307941902594
C           31.41375015702427       -7.00051787671736        1.05940511991504
C           31.75917772880621       -7.71764843842054       -0.09082480775528
C           31.72983049191393       -9.19161618536012       -0.05990721804555
O           31.42322300005814       -9.83441353325820        0.91117569251007
C           32.12440047812061       -7.02342858447969       -1.24660266749353
C           32.14636163349997       -5.63986377678594       -1.25085963968274
C           30.61624768839238       -2.76373216936778        0.03411206844553
C           29.34641791417624       -3.41724442140582        0.13660293382700
C           28.40420271364759       -2.44466041030630        0.12683871928107
N           30.45211838813046       -1.39790181410072       -0.02038586335420
C           29.09930485627081       -1.20152896575609        0.01942632617229
C           28.44634657915728        0.03023658029796       -0.08280403538396
C           29.13382837771321        1.24539349580387       -0.14260132710873
C           28.47528006559913        2.50932858762747       -0.23391046616813
C           29.44124586003997        3.45650353315048       -0.16700509302173
C           30.68821299360767        2.76624811827809       -0.03238134729576
N           30.48958641742679        1.40450367599409       -0.05083845540093
C           31.91284432735401        3.40692128737061        0.10618549835200
C           31.93228679241631        4.88542782018076        0.19213653830401
C           32.59345639134653        5.63970929265493       -0.78121497797592
C           32.60918115783314        7.02106762308301       -0.70637593310015
C           31.96711943137571        7.67589776805948        0.34736387230492
C           31.96995939637419        9.14682218786616        0.44981768438903
O           31.43044847831329        9.75697372765029        1.33692052013881
C           31.30744247384458        6.92111500937355        1.32295881142436
C           31.28774735580798        5.54183628126956        1.24487053787938
C           33.11994923749586        2.72067702978110        0.14663394012097
C           34.39688021670219        3.35507170716157        0.29946191914621
C           35.33249830989050        2.38343201052366        0.18966537823158
C           34.62636884328506        1.15455850164642       -0.00767434663786
N           33.27016642675109        1.36477286956503       -0.00242437446510
H           36.33397867847335       -0.07241171432953       -0.24863083262314
H           36.31548067187609       -2.63701867145732       -0.57885868293110
H           34.40809217099968       -4.54132549039716       -0.48709706752710
H           31.17192815367874       -5.06509885673709        1.94834461117711
H           31.13400717819432       -7.54819332307835        1.95293427277951
H           32.01739808895788       -9.67341459070449       -1.01869628383530
H           32.38988075990630       -7.57212133484136       -2.14441393315930
H           32.41851146437725       -5.10300692164868       -2.15261476479020
H           29.20357678921533       -4.48405252942448        0.18937839632530
H           27.33220344335385       -2.54434768019961        0.17960341758236
H           27.40965781430831        2.63841503990993       -0.33285650160133
H           29.33033314391028        4.52742448753541       -0.21307195268168
H           33.08120529921904        5.13466573642596       -1.60738012548650
H           33.12004323469408        7.59915721157872       -1.46956637106448
H           32.51706359747825        9.65954205380561       -0.36998055638707
H           30.81432386706943        7.43808179464516        2.13917027847656
H           30.78481170686814        4.95885214632854        2.00809862944093
H           34.54509699507856        4.40867590724731        0.47170003902364
H           36.40608248827527        2.46955110465145        0.24215741876434
C           18.10882732325528       -0.03229019527441       -0.11240491744635
C           19.33278858250218       -0.03058358218751       -0.13384165030488
C           20.67594891903198       -0.02241436023308       -0.14769474064468
C           21.90616958805184       -0.00496139419450       -0.15446346275580
C           23.24451013088547        0.01202314961451       -0.15269382164945
C           24.47463020958289        0.03085008643859       -0.14254817151272
C           25.81772673798848        0.03831268295130       -0.12586266698982
C           27.04162655079185        0.04430503224081       -0.10691891915611
