252
 energy: -469.516314190423 gnorm: 0.000745153579 xtb: 6.5.1 (b24c23e)
Zn          57.75959738668922       -0.04684303849134        0.00137679591961
C           54.35291624065363       -0.10838656022502        0.02411624303585
C           54.98031386612278       -0.14791957234943        1.26330323965277
C           54.30360483715918       -0.17255169195520        2.53020131724025
C           55.26022086105834       -0.18842782258304        3.49120291012142
C           56.53512699350799       -0.18509421117438        2.82234759216374
N           56.32939763579632       -0.15167610180683        1.47426675657841
C           57.78525381585357       -0.18360624913488        3.45266465771799
C           59.02591682752603       -0.13889021955325        2.80515436688284
C           60.30579139462296       -0.19764960111976        3.45768545284030
C           61.25264211463474       -0.14556818318142        2.48722030181568
N           59.21916179061623       -0.06638038513308        1.45340397943447
C           60.56318007790208       -0.06230368693078        1.23214978292109
C           61.19059112962932        0.00679307408324       -0.02248559513286
C           60.54505365683211        0.06283737609930       -1.26841492483049
C           61.21551001943107        0.10180278295098       -2.53585104190034
C           60.25406458327812        0.13100428787088       -3.49296048327185
C           58.98407882321947        0.11859047303455       -2.81881459090150
C           57.73371158154657        0.11851731977841       -3.44898204204939
C           57.72244508619737        0.19619888712979       -4.92997280059139
C           57.17599376909452       -0.84098645662056       -5.69078109829475
C           57.16784856770177       -0.76551699313974       -7.07129735008348
C           57.70121817732517        0.35099935839434       -7.71839967405665
C           57.66630535864685        0.38781934889338       -9.19919988881340
O           58.20333557264976        1.50138324043201       -9.72205192516739
O           57.20586191244757       -0.48417797131706       -9.89185706600618
C           58.24615215672063        1.39056818343491       -6.96375983556237
C           58.25772196229942        1.31002819892470       -5.58241142969464
C           56.49356177929609        0.05347928540896       -2.80260959340998
C           55.20878157224377        0.09842572603788       -3.45071365999744
C           54.26665284924440        0.03091121160357       -2.47770693411354
C           54.96221323888800       -0.04568484298439       -1.22314659157216
N           56.30799268785582       -0.02650200846725       -1.45350627544333
N           59.19775925287172        0.06974489739043       -1.46923488114680
C           57.79789056885417       -0.23061198019357        4.93480371516282
C           57.24914522310890       -1.32062995313564        5.61581150768705
C           57.26458766111917       -1.36079164832578        6.99775961102190
C           57.82449598964390       -0.30947409290256        7.72638727128997
C           57.81513397811986       -0.39637393673599        9.20555399846938
O           58.37711052262726        0.66212633954138        9.80974325756964
O           57.35436189960321       -1.31736716187501        9.83082448049824
C           58.37183617675335        0.78242744185755        7.05179634727220
C           58.35947575746187        0.81774676267436        5.66860641744915
H           53.26732944514213       -0.11450268288996        0.03168080068367
H           53.23222852982098       -0.16933025422965        2.65594031342849
H           55.12001149311401       -0.18953112940883        4.56026689012588
H           60.45818924071492       -0.28320464484365        4.52151907396356
H           62.32477492240389       -0.16777389166259        2.60156505175589
H           62.28590660308137        0.09876440542555       -2.66762910087192
H           60.39049938901466        0.14479322382464       -4.56233454477471
H           56.77282348591158       -1.71463956706092       -5.19127642896254
H           56.75043385776838       -1.56956179729787       -7.66748036663820
H           58.14022939497281        1.44716789212712      -10.68938087454903
H           58.65791255188683        2.26074475412442       -7.46121521540434
H           58.66980538293657        2.12359245559705       -4.99596549485884
H           55.05255952325857        0.18425068068402       -4.51412299687963
H           53.19349769664396        0.03950970681927       -2.58698037457339
H           56.82581442860076       -2.14434454915771        5.05228536822567
H           56.84544133333187       -2.20641123286958        7.53189589903747
H           58.33116265058953        0.52724130921435       10.77014589550985
H           58.80460855371781        1.60224187725390        7.61283508555995
H           58.77352917133904        1.67214428655383        5.14509536042924
Zn          90.53228454759066       -0.02358843086464       -0.06453564039672
C           93.93896413567833       -0.09625132725166       -0.10083273646328
C           93.30976488549949        0.01996452955895       -1.33424683708914
C           93.98462849104135        0.14416765480530       -2.59628536290131
C           93.02670222458902        0.25547218846931       -3.54965183500992
C           91.75274245273967        0.19106555636935       -2.88206782015662
N           91.96041288633762        0.05500725439816       -1.54081717110269
C           90.50241267027450        0.29072962246001       -3.50396577791376
C           89.26278514057350        0.27447541578739       -2.85325047743179
C           87.98200831566753        0.32699509568972       -3.50442743012360
C           87.03632866801132        0.26040033067082       -2.53360257289632
N           89.07100923207069        0.16565733584166       -1.50364878955152
C           87.72724331912667        0.15704846456913       -1.28089589166233
C           87.10110721222232        0.03655635576213       -0.02931213136459
C           87.74840943104888       -0.10003872509344        1.20968710119762
C           87.07972339611369       -0.24533366191311        2.47035369548713
C           88.04246644582365       -0.34036980185859        3.42188033668032
C           89.31131160881795       -0.24759797947340        2.75198903646624
C           90.56243214178848       -0.31677165394890        3.37670711141855
C           90.57472558587320       -0.42397401761701        4.85587743746103
C           91.13198571045227       -1.54141260207206        5.48340887374777
C           91.14279131142986       -1.63495537804779        6.86283959431605
C           90.60144449289666       -0.61057602762176        7.64215551124251
C           90.64077859725312       -0.75401451826581        9.11651033356666
O           90.09704545674948        0.28319337486386        9.77204998845364
O           91.11031252582922       -1.70019871312538        9.69649554633216
C           90.04486661440473        0.50807095031293        7.02096302627975
C           90.03042647215682        0.59657931816830        5.64013257474438
C           91.80213196450194       -0.28885361871830        2.72685642753982
C           93.08771861308711       -0.32168863046417        3.37404990561222
C           94.02859089521399       -0.26567554351363        2.39909563332045
C           93.33137785849684       -0.18614786669631        1.14563273959112
N           91.98593043573028       -0.19750821660538        1.37819428779559
N           89.09583568472630       -0.11264716688459        1.40851788723105
C           90.48955229612528        0.42114640354512       -4.98125025244171
C           91.01393895751887       -0.59482010453609       -5.78507090677579
C           90.99739105459702       -0.47515605077270       -7.16229988171407
C           90.46127176584041        0.66560678849775       -7.76315892466200
C           90.46766293644536        0.74884532047864       -9.24245047379050
O           89.93399257966452        1.88416881735439       -9.71957178944641
O           90.90307811874442       -0.10656536092197       -9.97090368132158
C           89.93956102970159        1.68471060340908       -6.96547676698564
C           89.95247916825313        1.55987815056525       -5.58736674368947
H           95.02450380145146       -0.10595733315292       -0.11099550269476
H           95.05583589249953        0.15186240115212       -2.72336577761809
H           93.16543337466197        0.38363479542492       -4.61122346833034
H           87.82786409678397        0.39137161948525       -4.56952204207409
H           85.96393503988864        0.27073274954664       -2.64742158668560
H           86.00961881078838       -0.27566630158892        2.60095062899227
H           87.90808256026770       -0.47599626655294        4.48297162702414
H           91.54165959444423       -2.34379956750807        4.88037023269619
H           91.56887221516729       -2.50188710382439        7.35582807540478
H           90.16299694999702        0.11226289892511       10.72553104440448
H           89.62653207659062        1.30714964334245        7.62151645973546
H           89.60917351566951        1.47159184959950        5.15792908542157
H           93.24531035153113       -0.36913793874605        4.43964551178418
H           95.10188925824477       -0.26909255288728        2.50726791727359
H           91.41909059133131       -1.48702646615626       -5.32122754576019
H           91.39704809201230       -1.26284083334474       -7.79151598545193
H           89.97718778628652        1.85941769602490      -10.68919923123864
H           89.52602745479543        2.57357089889859       -7.42711383889113
H           89.55808209606525        2.35739930476047       -4.96776159703428
C           62.60876552969724        0.01101736437736       -0.03081891270022
C           63.82309244709362        0.01790931881345       -0.03417744356876
C           73.53735565534960        0.02052641735870       -0.01236298542253
C           74.75569524844664        0.02405599134118       -0.00286989638285
C           84.46886128072622        0.04804488360515       -0.01021317614051
C           85.68330910398193        0.04241525745062       -0.01743673491942
Zn          68.67870493003475        0.01869172500378       -0.02681304757630
C           65.24076192941727        0.01873733002046       -0.03392573077421
C           65.88006619353852       -1.23097578273216        0.01408196445955
C           65.20354644670863       -2.49537942278408        0.01619225096663
C           66.15922678438066       -3.45674361664200        0.08077174948987
C           67.42988760659330       -2.78731135242690        0.13220272128808
N           67.22497782009498       -1.43657163502284        0.07511248100468
C           68.67655797483027       -3.41719722001133        0.22108919490265
C           69.92079586503577       -2.77633650784923        0.23295292088933
C           71.18459538092787       -3.43071608874803        0.42325838694110
C           72.14201184670624       -2.47029887871741        0.36743488158794
N           70.13333193039061       -1.43216744240591        0.08402526124024
C           71.47700966064275       -1.22169870267252        0.14296671731317
C           72.12723201786663        0.01920013405005       -0.01942448307749
C           71.47682581340406        1.25933948013358       -0.18762169575625
C           72.14269247555633        2.50766071928977       -0.41089285188086
C           71.18551231538608        3.46810695488620       -0.47115636567985
C           69.92084022091439        2.81399572510628       -0.28527704569027
C           68.67657287442360        3.45537781743730       -0.27770599798994
C           68.68407976302429        4.93583058011352       -0.35875729610032
C           69.32167054852253        5.68881475890985        0.63167404597349
C           69.32556799823378        7.06955389666022        0.56684026868637
C           68.69582521838907        7.72569198252549       -0.49275351380576
C           68.72735842549025        9.20696792258363       -0.51855676125857
O           68.09035674882800        9.74056390374837       -1.57235757991003
O           69.26594205860476        9.89085701675965        0.31466360941617
C           68.06172467925634        6.97943044690723       -1.48672795763343
C           68.05555057694562        5.59724251234351       -1.41708375705930
C           67.42928372800833        2.82553118126961       -0.19360487628216
C           66.15824784888571        3.49454859479041       -0.14453981259604
C           65.20260499113454        2.53279406241377       -0.08335743834435
C           65.87943725905347        1.26871986217909       -0.08027011830022
N           67.22450475205817        1.47487470434239       -0.13854217229818
N           70.13274672313356        1.46979369243737       -0.13603867257464
C           68.68245985827880       -4.89782637650159        0.30481976531565
C           68.05798252269204       -5.55632450514490        1.36752974655986
C           68.06545219260512       -6.93741950348447        1.43431321832517
C           68.69334244971601       -7.68720930950043        0.43777331807336
C           68.67128161747422       -9.16500441539249        0.55086304794402
O           69.30730634517235       -9.78971968578422       -0.45186863978080
O           68.13964356160631       -9.77106518757872        1.44622654021777
C           69.31813157505188       -7.03506055859649       -0.62577490123295
C           69.31361368324819       -5.65279506191926       -0.68761921865433
H           64.13383280689534       -2.62247641806246       -0.03363971743903
H           66.01817583074265       -4.52552560886732        0.08225341010937
H           71.31971361573862       -4.48608829110704        0.59668378127935
H           73.20609006922103       -2.59149886651107        0.48319975981291
H           73.20721196465443        2.62878392747548       -0.52298812163389
H           71.32193224497402        4.52329510443320       -0.64463375357550
H           69.79991570218584        5.18159002733380        1.46195863211839
H           69.81343065874299        7.65883905866291        1.33548297714202
H           68.15694779344395       10.70741598164699       -1.51274530664311
H           67.57599925538592        7.48428111504115       -2.31342078992020
H           67.57464780903447        5.01820615273034       -2.19745696650996
H           66.01640578693642        4.56322832960569       -0.14465021838744
H           64.13269459350472        2.65946119019583       -0.03554339283556
H           67.58138543412055       -4.97626801106158        2.14962703468579
H           67.58705209920977       -7.45456314449628        2.25883644432556
H           69.24914783992561      -10.74748812532387       -0.30329429155092
H           69.80418853867370       -7.61259928806214       -1.40316641651931
H           69.78844805485389       -5.14622237391570       -1.52041545663627
Zn          79.61329555548276        0.03661578128611        0.00669552253342
C           76.16578126190205        0.02637411091709        0.00396494628769
C           76.81937404368901       -1.22280290713582       -0.03208574842710
C           76.15841950251486       -2.48965797177169       -0.13170259784115
C           77.11848110935982       -3.44808165730095       -0.08700307586088
C           78.37987530659102       -2.77430619346114        0.04189456033329
N           78.16335002904002       -1.42247851437898        0.05169163446273
C           79.62591139876270       -3.40568351254535        0.12972781832254
C           80.86966966246322       -2.76441505397001        0.16789883532185
C           82.14086656059374       -3.41924449899559        0.31115478172264
C           83.09403299905495       -2.45374062512282        0.27344241034954
N           81.07121669461735       -1.41567026410530        0.07155886992232
C           82.41528933395587       -1.20030333556414        0.11806167565459
C           83.05163520090618        0.04620683257482       -0.00326927259562
C           82.40840432053999        1.28940014770754       -0.12054995551887
C           83.07969006867791        2.54621358681791       -0.28128113785478
C           82.12115964421015        3.50655247700376       -0.31567890432556
C           80.85415570106620        2.84524088047541       -0.16452956629386
C           79.60647879165722        3.47884215953639       -0.12292210277339
C           79.59827485934814        4.96012437811449       -0.18400497055500
C           80.24970410314430        5.71612922597798        0.79463866132732
C           80.23993139263123        7.09724269269785        0.73217443458177
C           79.58197290118628        7.75012188960156       -0.31209795880074
C           79.60214848461648        9.23188682976683       -0.33782424545782
O           78.93423601269502        9.76020130056526       -1.37471615967721
O           80.15812545882163        9.91922901455066        0.48093868801150
C           78.93056927115231        7.00069338769631       -1.29238081187679
C           78.93832557445141        5.61865174066045       -1.22525941632223
C           78.36472123059062        2.83946501414625       -0.02916329295993
C           77.09974843340125        3.50562686850408        0.10407638357824
C           76.14517091148669        2.54160687222074        0.14776660691243
C           76.81316818609460        1.27891407111281        0.04452592103671
N           78.15595984594830        1.48641404222370       -0.04057627410254
N           81.06354734593555        1.49777592813438       -0.06694117962708
C           79.62802098088454       -4.88746509044596        0.18255924134616
C           78.98359950980264       -5.55820579569975        1.22594132968555
C           78.98968929131601       -6.93969316011833        1.27783246201932
C           79.63552741843648       -7.67836097144611        0.28433229815808
C           79.61350232424427       -9.15693572869774        0.38267742495557
O           80.26440422662853       -9.77185779364301       -0.61689534995457
O           79.07086401210728       -9.77244824635782        1.26501000852719
C           80.27701395103931       -7.01433127477239       -0.76184786771412
C           80.27394320145058       -5.63132335786955       -0.80857922026104
H           75.09502503471593       -2.62522518505561       -0.23756060945148
H           76.98601002390789       -4.51593882898979       -0.15270470183608
H           82.28365863352197       -4.48039555547182        0.43691335421797
H           84.16341634806736       -2.57069771895304        0.34912802353057
H           84.14803951683739        2.66883253325963       -0.36282912000493
H           82.25818828206739        4.56817062492395       -0.44392149710820
H           80.74911691165730        5.21206192432015        1.61428574571875
H           80.73928812929627        7.68949428987915        1.49114332501425
H           78.99298562088894       10.72768732890253       -1.31735542120144
H           78.42109909154551        7.50266791338772       -2.10641118676569
H           78.44330699783204        5.03639796383298       -1.99438543385846
H           76.96128594787143        4.57243441131381        0.17389055153845
H           75.08133522806139        2.67072563664006        0.25751961049495
H           78.49242059924430       -4.98635979567826        2.00509921487290
H           78.49685889592669       -7.46575065023196        2.08808441891104
H           80.20385514969649      -10.73094798011384       -0.47814598559722
H           80.77557621893635       -7.58343804328513       -1.53757077419567
H           80.76129578075285       -5.11621418752215       -1.62877735794741
