199
 energy: -396.738878376747 gnorm: 0.000849996511 xtb: 6.5.1 (b24c23e)
Zn          33.98827753654132        0.05263238371413        0.01499299210706
C           30.58072226794799        0.11013480180276        0.05983544435437
C           31.21002636820861       -0.19548701162161        1.26042972138799
C           30.53539413882132       -0.51308498507360        2.48837504231978
C           31.49355295355392       -0.74741344490348        3.41891717377640
C           32.76694973483621       -0.56358757455448        2.77293105985917
N           32.55944454694768       -0.24046034039321        1.46424242709542
C           34.01887837045446       -0.71428708637928        3.38115894386840
C           34.03672298439393       -1.05533093106052        4.82487532100843
C           33.48645082368356       -0.18138800446826        5.76598295049074
C           33.51140171305043       -0.49313997136892        7.11535026787304
C           34.08636394194963       -1.69002792029150        7.51110361844331
S           34.13389887705090       -2.08503444183133        9.21791130232100
O           34.05948312503560       -0.89793336590148       10.01810052203544
O           32.70854815380841       -2.85774558258933        9.32244724349245
O           35.17517252237170       -3.03103050748969        9.49417958358972
C           34.63924429357988       -2.57780951513542        6.60231345831336
C           34.61292736984442       -2.25322388757548        5.25622967518698
C           35.25885481790777       -0.57227285198335        2.74718874214756
C           36.53873109775846       -0.66532368393582        3.39506862505197
C           37.48412056158921       -0.45920891279713        2.44362978197742
N           35.45048094800031       -0.29596316975422        1.42116275868818
C           36.79309050464951       -0.23078507985727        1.20820731444834
C           37.42127997420896        0.00645856580148       -0.02866612835275
C           36.76914939003271        0.25785989779668       -1.25015359607811
C           37.43525145235221        0.46564876245901       -2.50271253755175
C           36.47213325766154        0.69183504712322       -3.43168067200348
C           35.20667516096380        0.63381537082570       -2.75214757832670
N           35.42391222475918        0.35649057102097       -1.43028077871723
C           33.95528062553441        0.80882657561278       -3.35464865984078
C           33.94402958108188        1.13882291047115       -4.80097756132838
C           33.33603291566197        0.27764730240892       -5.71798506891531
C           33.32850106152615        0.57965232491048       -7.06983934974220
C           33.93227085264515        1.75274677647290       -7.49256888158089
S           33.91973821334962        2.14619486362609       -9.20082301543157
O           34.05115149375571        3.55962770839646       -9.40614232553713
O           35.33208715727047        1.45966948318149       -9.61860680458420
O           32.85851759381019        1.45181890478535       -9.86669583989468
C           34.53690014939934        2.63062565531467       -6.60727360179921
C           34.54180305998852        2.31628746405482       -5.25852230077906
C           32.71577615945322        0.70184089750020       -2.71247408669652
C           31.43262160508997        0.92905888936065       -3.32465128808220
C           30.49227374296182        0.73184179222369       -2.36781211457181
C           31.18809029777449        0.39279752556934       -1.15753077141608
N           32.53231878767296        0.38948259687154       -1.39760514240002
H           29.49543769090634        0.12951613871759        0.07438668008817
H           29.46434817576833       -0.55623548230977        2.60878314705475
H           31.35557630197415       -1.03054547400646        4.45014705462194
H           33.05414593367846        0.75644892283699        5.43713471507811
H           33.09951745305495        0.18306420410703        7.85392692933334
H           32.56480673904141       -3.17146144305332       10.22351422266979
H           35.08503756806230       -3.50246974409795        6.94678930768662
H           35.03169026140185       -2.93814631170609        4.52810643097526
H           36.69271055725761       -0.85019709956387        4.44593873235359
H           38.55598819490319       -0.45427256529507        2.56131075415447
H           38.50353383980847        0.43382351850492       -2.64630307451248
H           36.60494012161443        0.86958789487704       -4.48668764748009
H           32.88018606707595       -0.64133814705109       -5.36831980874004
H           32.86068138040186       -0.08133040538048       -7.78857502078350
H           35.62089247588467        1.79137851236171      -10.47763712858479
H           34.98832637081453        3.54531766399342       -6.97059276779695
H           34.99878492146637        2.99540167918299       -4.54816655890869
H           31.27681217985026        1.21492326834386       -4.35255056018960
H           29.42064714392059        0.81351073696286       -2.45949519342626
Zn          60.95373246304842        0.04240259860070       -0.00966603041560
C           64.36179156979343        0.12427659193022       -0.03011977216304
C           63.73201906123042        0.27594849279910       -1.25940621879850
C           64.40618177269579        0.43413529085475       -2.51809265532285
C           63.44762170048036        0.54784185444071       -3.47052457203278
C           62.17443886586175        0.47119427955725       -2.80288891245361
N           62.38247561245845        0.29764092342212       -1.46633661684998
C           60.92256162058928        0.53479364271236       -3.42646769352084
C           60.90579796903787        0.74706464993189       -4.89475951647809
C           61.43688418672662        1.91661667231444       -5.44469499125106
C           61.41229663660087        2.12523874949955       -6.81374861945434
C           60.85728413953341        1.14904149789871       -7.62536317109182
S           60.81004686724302        1.41257190774130       -9.35734216729012
O           60.85918068296046        2.81287992879636       -9.65978522099515
O           62.24784613008969        0.75804389842804       -9.73665254860966
O           59.78564777594564        0.61711092291768       -9.96865416926536
C           60.32451867597470       -0.02183132569988       -7.11062414418446
C           60.35009498509942       -0.21725420017772       -5.73973069657604
C           59.68283817587611        0.41899535913012       -2.78709396066835
C           58.40224393336583        0.54184722602113       -3.42868169313448
C           57.45718637878562        0.38445838653902       -2.46777662911054
N           59.49152977329854        0.20416311540877       -1.44954728778023
C           58.14892299013727        0.17344719129720       -1.22956186136262
C           57.52068172018839       -0.02807070057679        0.01367292467987
C           58.17267660520430       -0.20774769481034        1.24788509274211
C           57.50648125459233       -0.45025823294114        2.49422681497618
C           58.47001025762203       -0.57454762259912        3.44172286747257
C           59.73596790204246       -0.39775985766649        2.78389302727919
N           59.51822817290179       -0.18622901634693        1.44984475914463
C           60.98801446595885       -0.46221483733530        3.40635984645150
C           61.00201764168414       -0.68454572237294        4.87318314301241
C           61.60138145304840       -1.82832458297598        5.40690954353697
C           61.61312674092453       -2.04436651452268        6.77504745030342
C           61.02215984731367       -1.10285341704513        7.60190719934437
S           61.04178296592937       -1.36410775705614        9.33528352553934
O           60.92699066698249       -0.12352266585762       10.04586751170415
O           59.62229174400287       -2.14170722701992        9.48152854543117
O           62.09636618451672       -2.26487328482302        9.69341716405462
C           60.42625202130287        0.04466479693632        7.10378633120206
C           60.41709608654637        0.24812836751812        5.73387084379482
C           62.22751473672623       -0.33630043723432        2.76742452893471
C           63.51101256405566       -0.35126157572259        3.41957467266169
C           64.45112746489860       -0.18657106672964        2.45637619017557
C           63.75485879790799       -0.05932026011523        1.20624835163300
N           62.41059800489242       -0.14876818491401        1.42910294170122
H           65.44699042712544        0.15144071975383       -0.03648630111647
H           65.47724349770262        0.44685038121178       -2.64525240221764
H           63.58515468663131        0.66204137466718       -4.53386299760032
H           61.85382341429451        2.67398057581507       -4.79113211718011
H           61.80906810330207        3.03385667374452       -7.24891173804074
H           62.37483374212531        0.76434567480036      -10.69312087850230
H           59.89428816238301       -0.76178606712898       -7.77377404194651
H           59.94686138343113       -1.13037406924810       -5.31756464759945
H           58.24733222029800        0.73779667462217       -4.47739023922780
H           56.38499583040847        0.41532358255367       -2.57830220928562
H           56.43784743575134       -0.52367705811044        2.61864186169299
H           58.33708551771389       -0.78059980080375        4.49155094825217
H           62.04756709413170       -2.55861347361623        4.74191994936154
H           62.07455664090024       -2.92758616845184        7.19852345256106
H           59.33415575555533       -2.13385913446183       10.40222186972270
H           59.98497546588715        0.76627619179230        7.77980281086040
H           59.96723445521452        1.14532492581627        5.32488744479502
H           63.66718101158090       -0.46089133084087        4.48078270436855
H           65.52287630470093       -0.14553915991598        2.57099757896039
C           40.05143658503481       -0.02027829929598       -0.05059196988160
C           38.83067153595539       -0.00799107280438       -0.04419002339408
C           41.40370349928876       -0.03006591838039       -0.05563401438490
C           42.62455649604897       -0.03833304386283       -0.05685934210545
C           53.53807767482826       -0.07140749231545        0.02038836155727
C           52.31719433677365       -0.07590618958807        0.01272201925929
C           54.89043585157583       -0.06295019159025        0.02222282342198
C           56.11124825872695       -0.04981776684792        0.02177125515190
Zn          47.47149711255639       -0.05550083441992       -0.02721906190263
C           44.03370858553434       -0.04218048907097       -0.05255817741568
C           44.67466033589161        1.02899072667865        0.59776600523019
C           43.99588082163465        2.10086665592545        1.26535698276236
C           44.95080602203943        2.93547717262542        1.74857309870205
C           46.22340618414116        2.38364096563989        1.37340727990549
N           46.01918104204447        1.21999823364077        0.68361581408749
C           47.46984018047759        2.93570198187452        1.68901376986192
C           47.46838713687166        4.22832811193770        2.41810002902937
C           48.02634070956935        4.31998315439113        3.69563831344332
C           48.02812673107356        5.52532018875492        4.37829943190829
C           47.46918343033813        6.63619841491124        3.76768435372273
S           47.48318995218506        8.16953244522509        4.61761666626358
O           47.42160366061205        9.26890245766653        3.69858698516632
O           46.03428870573409        8.06011962953744        5.34420478771928
O           48.50197270844062        8.17361440796568        5.62448595210686
C           46.91255163558433        6.57826276227080        2.50011606363187
C           46.91228101116796        5.36682587910257        1.82889381547561
C           48.71679063256031        2.38242464437582        1.37742065753644
C           49.98928325925350        2.98429831204531        1.66594976234641
C           50.94459354355428        2.14229431384887        1.19663577386423
N           48.92157411082805        1.19686015564190        0.72597607768291
C           50.26633842159631        1.02456794813149        0.60852159160180
C           50.90795521133144       -0.07244580260041        0.00339264346486
C           50.26671118109805       -1.16322404221766       -0.61320367842175
C           50.94454830767464       -2.28621192208859       -1.19153673732926
C           49.98967049212639       -3.11726812265582       -1.68099777817443
C           48.71807683062308       -2.50334848506634       -1.41450824533963
N           48.92267202350677       -1.32192998457911       -0.75551608816949
C           47.47152635585874       -3.04285403976208       -1.75121138139507
C           47.47049650427472       -4.33149922060197       -2.48720383263071
C           48.05244060796046       -4.42220015866175       -3.75411591498014
C           48.05340799639668       -5.62332801642715       -4.44413211686382
C           47.46929525153799       -6.73109391205453       -3.85166679496872
S           47.48145625820770       -8.25893696996168       -4.71116284192111
O           47.39071534648020       -9.36362791582710       -3.80101763627975
O           46.04714174118550       -8.12740299370401       -5.46339627681565
O           48.51798148377810       -8.26857284277221       -5.69987594279424
C           46.88900554186839       -6.67430104599938       -2.59467675101214
C           46.88999051227960       -5.46702778540214       -1.91600343839805
C           46.22486161732904       -2.48052297047228       -1.45463799015489
C           44.95351637921840       -3.02035448822047       -1.85108560641023
C           43.99813156066161       -2.18077469261705       -1.37733077817218
C           44.67556952909382       -1.11654326113926       -0.69645572143574
N           46.01967252414336       -1.31777932642123       -0.76359727372302
H           42.92517047669483        2.19317453158191        1.35370888978223
H           44.80798679754212        3.83864472494383        2.31965964727927
H           48.44923749979744        3.43662911858764        4.15977309776212
H           48.45871072010372        5.60727888448627        5.36835752069621
H           45.75184937891032        8.93002329620113        5.65281177592316
H           46.49523161134114        7.46903060874597        2.04754259466332
H           46.49325216473880        5.30274597058789        0.83143654957527
H           50.13214461753898        3.93521185671024        2.15330179814021
H           52.01527243586347        2.26447028522672        1.23405264887048
H           52.01448782963436       -2.41904821718379       -1.20920629586488
H           50.13200743668915       -4.06829031176351       -2.16830308023551
H           48.49475749061399       -3.54120402779922       -4.20440051701158
H           48.50221764529149       -5.70448879335235       -5.42613405496578
H           45.76784753344580       -8.98891452884593       -5.79679196421072
H           46.45242158394097       -7.56269535527091       -2.15581978434010
H           46.45253160135709       -5.40413780540760       -0.92640936135032
H           44.81170662024754       -3.91957306250305       -2.42862055249796
H           42.92807792677687       -2.26419578183129       -1.48134906728355
