185
 energy: -333.869494192379 gnorm: 0.000635793750 xtb: 6.5.1 (b24c23e)
Fe          31.23862422730931        0.02770785306628        0.03827545989244
C           27.85238982184003        0.04168738629349        0.15603899497246
C           28.50403589130367        1.25663350945151        0.20905339884138
C           27.83009912130120        2.51782582771118        0.28097014419860
C           28.78967602690346        3.46309250728874        0.41701471095277
C           30.04837614378669        2.77516668684615        0.44306334449444
N           29.86188865082714        1.43055568475531        0.27152288403757
C           31.27155044582486        3.39733528400896        0.67132133308226
C           31.28491030659779        4.85310178201735        0.94482617581847
C           30.62549305060267        5.36984180966158        2.06241909855333
C           30.63613576202196        6.72887398900489        2.32014708991167
C           31.30415516134570        7.60089785685712        1.45533935724580
C           31.31076384400343        9.00088742078980        1.71379894662637
N           31.31663659596229       10.13249150311093        1.92225824719332
C           31.96436765668708        7.08847009391644        0.33459842106807
C           31.95624622072970        5.72743336959520        0.08719361930897
C           32.47850488435309        2.71235969195610        0.66277329051385
C           33.74349765109081        3.31385027131485        0.96460297054122
C           34.68537157043713        2.35881643430430        0.77415109446007
N           32.64704797860657        1.38923867626863        0.33118767951156
C           33.99318872646137        1.17784075617289        0.36236504402680
C           34.64678699595122        0.00395422176519       -0.03392171113755
C           33.96149294018919       -1.15492726913161       -0.42090554457558
C           34.61941458272879       -2.33671907125760       -0.88301244367406
C           33.65510364406507       -3.27023602159532       -1.06822306513206
C           32.41196870954030       -2.65766749497043       -0.70394366820822
N           32.61380216864255       -1.34452133355057       -0.35052667606106
C           31.19774349553667       -3.32830554970832       -0.66290404113644
C           31.17496824048644       -4.77764730905928       -0.96738852241955
C           30.43390280839202       -5.26170340577247       -2.04793800828751
C           30.40719027848970       -6.61488251330687       -2.33357801987777
C           31.11937320578929       -7.51407076144383       -1.53421693904690
C           31.08699799081976       -8.90813746975343       -1.82105943057347
N           31.05836579785204      -10.03475763956532       -2.05372980212893
C           31.86110879264499       -7.03455871134076       -0.45056204975114
C           31.88926776456448       -5.67920630243808       -0.17505969690680
C           29.99865042030603       -2.70026468012541       -0.34049604016278
C           28.74031416011272       -3.38031188137213       -0.22946899865309
C           27.80244318803199       -2.43226764879532        0.00389964041296
C           28.48957427753716       -1.17677534245709        0.04380090705424
N           29.83675912530087       -1.35808817444107       -0.13122105060811
H           26.76913293446669        0.04513572108326        0.19950937418870
H           26.76025375877150        2.64345192128711        0.23111735883400
H           28.66902560473528        4.53162272512329        0.49141835186441
H           30.11536845330597        4.69520090669999        2.74062915104494
H           30.12756943792128        7.12232063076246        3.19249467686380
H           32.48065250969319        7.76205693090154       -0.33931858131638
H           32.46011632044498        5.33414030259969       -0.78847538001418
H           33.88192608388890        4.33299663467953        1.28681353773636
H           35.75404803116009        2.43311958445841        0.89488841604756
H           35.68202280115147       -2.42490308955070       -1.04208261239259
H           33.76528631415721       -4.28219226717434       -1.42236337239326
H           29.88834934323292       -4.56608140258016       -2.67548788951812
H           29.83465925694108       -6.98290080314991       -3.17690008561338
H           32.41159998366069       -7.72915283657809        0.17308472331513
H           32.45541784415411       -5.31194546771922        0.67343794589845
H           28.60559578600016       -4.44631047642400       -0.31522280305810
H           26.73914163940146       -2.55221642439115        0.13742797632788
Fe          63.21885370975648        0.01109979164965        0.07707075333968
C           66.60832316074503       -0.00499777118439        0.17067859122432
C           65.95545223049974       -1.21276942979007        0.30371177718830
C           66.63084440443376       -2.46549058020775        0.46042387490136
C           65.67148625811355       -3.40387392912825        0.63711677776254
C           64.41097632387959       -2.71952275903186        0.60302836801650
N           64.59701143495089       -1.38586696658359        0.35763119961224
C           63.18615009420908       -3.33564604668509        0.83342754643766
C           63.17199016969168       -4.77727082523790        1.17535539982078
C           63.79908133675806       -5.23437154608488        2.33663577389656
C           63.78453055790317       -6.57876229508545        2.66205895163315
C           63.14472917271949       -7.49583889737363        1.82286614351896
C           63.13162664360003       -8.88068828441847        2.15267619416092
N           63.12188776244678       -9.99958664073852        2.42107157944510
C           62.51813430567213       -7.04329795484383        0.65794136212430
C           62.53030173115217       -5.69639760665520        0.34244110507520
C           61.97705757227935       -2.65703105582419        0.77219840424604
C           60.71019552853971       -3.25424367708247        1.07433397276667
C           59.76837025891505       -2.30698644836650        0.84989548139024
N           61.80945516309970       -1.34560664865994        0.39729352971969
C           60.46193812823010       -1.13442923552421        0.41696579156986
C           59.80860410875307        0.03589903423483        0.01553202159663
C           60.49067234462978        1.18761116711185       -0.39193829117011
C           59.82757399660425        2.36110853183944       -0.86777730325340
C           60.79273860265674        3.27833829209925       -1.11638552812801
C           62.04227172632156        2.66652751247718       -0.77334277367231
N           61.84239917767736        1.36803215393560       -0.36875432814969
C           63.26255753534626        3.32658156664706       -0.80633271344250
C           63.28700172012375        4.75732722432851       -1.19011973945911
C           63.98832993686932        5.17087574959353       -2.32504513615136
C           64.01355388552020        6.50490093172068       -2.68991883801636
C           63.33983972976173        7.45553785357512       -1.91716357133211
C           63.36859278262344        8.82999645161144       -2.28689696726935
N           63.39658225763642        9.94081773898648       -2.58582697617306
C           62.63973619198553        7.04690646829022       -0.77820081132976
C           62.61319960634257        5.71016656668706       -0.42295454981265
C           64.46548504388929        2.70719589307506       -0.48505875526506
C           65.72869949343675        3.38570748492322       -0.43901264446431
C           66.66535919274013        2.45018347508860       -0.15656792713790
C           65.97330761454329        1.20369671437571       -0.02488965153538
N           64.62503685090269        1.37865016978002       -0.19884127285589
H           67.69153808517015       -0.00701733758379        0.21501714871073
H           67.70161348988891       -2.59045826780848        0.43380441836569
H           65.79312763197602       -4.46585936919703        0.77582350277198
H           64.28668119176304       -4.52420244355442        2.99486964895565
H           64.26748304730158       -6.92569923108788        3.56805679428468
H           62.02413709582871       -7.75211096286024        0.00373562040738
H           62.05194803837094       -5.34968929780034       -0.56657380100105
H           60.57072940977838       -4.26487997136644        1.42181355422468
H           58.69878154341952       -2.38032275580319        0.96289366305672
H           58.76107879001488        2.45388456474135       -0.99495242652498
H           60.67881868513592        4.27906805877202       -1.49989300995631
H           64.50350240063364        4.43471868496775       -2.93168806974665
H           64.55446869704532        6.81797413311193       -3.57525011186855
H           62.11972019654560        7.78169155242203       -0.17480661931810
H           62.07932207977856        5.39830344012222        0.46757486730265
H           65.86662607470460        4.44315683279658       -0.59608530825435
H           67.73088077812267        2.57288478546117       -0.04489580749360
C           39.84359643069929       -0.01547687935960       -0.06885612078230
C           38.61278232289023       -0.01659761836029       -0.06386642534691
C           37.27247948319194       -0.01296341940066       -0.05811238062551
C           36.04643111681475       -0.00830977962388       -0.04954256763296
C           41.18369362470590       -0.01088286752486       -0.06735590727544
C           42.41002321799638       -0.00445984327517       -0.06458896712793
C           55.83846519137187        0.06190633082804        0.00288331464413
C           54.60878966467289        0.06111633904572       -0.00174938634775
C           53.26654764981770        0.05553000462429       -0.00551270087827
C           52.04125059749408        0.04745113558983       -0.01104366407445
C           57.18103709091242        0.05813375898985        0.00893487346268
C           58.40598381038525        0.05073607185692        0.01208689739216
Fe          47.22463463841341        0.02145374408534       -0.03910349656427
C           43.80882899354868        0.00305289472315       -0.05816427089822
C           44.48813629333700       -1.18840498978216       -0.34598760179152
C           43.82312199716277       -2.42453541658429       -0.61333305845371
C           44.78453899180417       -3.31361218300058       -0.96266112526615
C           46.03172530002771       -2.61105769944522       -0.91532547295158
N           45.83640469525341       -1.31841043605208       -0.49404167917410
C           47.24771920287348       -3.15945287087464       -1.30268011352561
C           47.25587103269828       -4.53348100925832       -1.85612402526954
C           46.56099392020899       -4.82451969107878       -3.03222630184425
C           46.56829656475647       -6.10504098161779       -3.55537432574890
C           47.26765928357058       -7.12449675933376       -2.90267015151500
C           47.27336540591493       -8.44466474434704       -3.43580339576666
N           47.27746556394788       -9.51142285130212       -3.86706020756607
C           47.96106508989104       -6.83867973150087       -1.72286829651117
C           47.95671423053842       -5.55399791412932       -1.20975521488574
C           48.45577645717709       -2.48073910976687       -1.19660506856191
C           49.71274393312238       -3.01064325396110       -1.63282871274929
C           50.66149257162176       -2.11523417386758       -1.26562797766862
N           48.63207727450845       -1.25068732400553       -0.61247166011099
C           49.97903533685471       -1.03947264870437       -0.61847988447527
C           50.63997284975675        0.03908063674122       -0.01780985430706
C           49.96023936653950        1.10976848303567        0.57595242207653
C           50.62319069986169        2.19117918056647        1.23367389081991
C           49.66069948546370        3.07641133912737        1.58965535599722
C           48.41505384374947        2.53512459094309        1.13517971577369
N           48.61134488271382        1.30726574541840        0.55294639369647
C           47.19929556504943        3.20300179075613        1.22319151600004
C           47.18892920150111        4.57804873721394        1.77343666841126
C           46.46830256048386        4.86958238754293        2.93384932802105
C           46.46273197351341        6.15069387659223        3.45564584978868
C           47.17541745342361        7.17025957699787        2.81770425693894
C           47.17070455852941        8.49043843544920        3.35072271286148
N           47.17028778498566        9.55660025964037        3.78351044968930
C           47.89342290456646        6.88441564677731        1.65270154165724
C           47.90111011337697        5.59942057911450        1.14064094051018
C           45.99397254938187        2.64217707076483        0.82035472923628
C           44.73912814160823        3.33190262835026        0.85013053509010
C           43.79122904490378        2.43175550256102        0.49218607224133
C           44.47221464391114        1.20203110197787        0.23594839648754
N           45.81714309651204        1.34655035192489        0.39977389238334
H           42.75844626122440       -2.57718898640233       -0.54080669239635
H           44.66932383370816       -4.35253272991339       -1.22508107248123
H           46.02596226783053       -4.03366072486107       -3.54562620543765
H           46.03293220062572       -6.32239445285694       -4.47217256837295
H           48.50078979811659       -7.62763107844359       -1.21237782381452
H           48.48674703693687       -5.33768057520069       -0.28913091186548
H           49.84276357202815       -3.94438012498928       -2.15503754327526
H           51.72818368216083       -2.16512326018715       -1.41312802104711
H           51.68719413159933        2.25137653691009        1.39594325743120
H           49.77470778353047        4.00992090236005        2.11596189297081
H           45.92393895931526        4.07857642123829        3.43710991431271
H           45.90749509211138        6.36822168782295        4.36049754905472
H           48.44320783748374        7.67346734219199        1.15322399471719
H           48.45037063431250        5.38316121088378        0.23134793585622
H           44.60975839525769        4.37040909615202        1.10752248109150
H           42.72598440622150        2.57315551526231        0.40647425886792
