444
 energy: -780.237034810013 gnorm: 0.000583671956 xtb: 6.5.1 (b24c23e)
C           80.92141489851959        0.12794177353194        0.05782518083018
C           81.54336552110878        1.25802518563615       -0.45740839889275
C           80.90407289516260        2.40995858531664       -0.99550968941564
C           81.87601177295278        3.29037777424788       -1.38006524156970
C           83.14072104534119        2.70980693183642       -1.07786133774682
N           82.88907318969277        1.48159223398354       -0.53496581187609
C           84.41027770385703        3.25905073013534       -1.29238746387657
C           84.46069894056762        4.62510131799261       -1.86751837331933
C           85.10178988501690        4.85573868429349       -3.08546937983642
C           85.14942304626345        6.12870216772317       -3.63175794516246
C           84.55745562746402        7.19338343268004       -2.95613451723580
O           84.58303307307744        8.45669594721527       -3.45331822318498
C           83.91674589009615        6.97776718126226       -1.73738802720135
C           83.86821440806412        5.70214352419194       -1.20353409061970
C           85.61674377036103        2.61573460455342       -1.00454634968743
C           86.92167954528666        3.23261890511066       -1.16118196037077
C           87.82998058537804        2.30514170286151       -0.79359299624204
N           85.75433830943822        1.34705414206769       -0.52986776494085
C           87.07874704791126        1.12727842973320       -0.40533589795600
C           87.70015937673912       -0.06541320382732        0.01699020630310
C           87.05061064514793       -1.23710962372892        0.44877444138977
C           87.68014751888832       -2.44853580750173        0.83947513103216
C           86.70373205474873       -3.33010561043699        1.21277040757458
C           85.44689629341964       -2.67927086259635        1.07067180183613
N           85.70827309896062       -1.42141086902314        0.59438031237927
C           84.18003345797744       -3.20668806357204        1.34334735223097
C           84.13240538880181       -4.58053338940525        1.89827391516305
C           84.76474321408202       -4.88193034035440        3.10744441484294
C           84.72173713656704       -6.16188050652079        3.63081045603822
C           84.04649844781389       -7.16796517209246        2.94210457508188
O           84.02787848484409       -8.41386200158318        3.48160787942302
C           83.41419375677825       -6.88370135854887        1.73387028147747
C           83.45649177124194       -5.59652176706781        1.22121751219954
C           82.97323660905236       -2.53079809711308        1.13094235333881
C           81.66441856450848       -3.06378256601652        1.47529679757841
C           80.76294682741103       -2.12971123962011        1.11042097534348
C           81.52032637835508       -1.02207670027681        0.55528259987197
N           82.84790603920334       -1.29408444679722        0.59391752863553
H           79.83637731326904        0.15548012895248        0.06850965259566
H           79.83604385214772        2.53355714693192       -1.07883383101809
H           81.73480401530558        4.25449241882414       -1.84105155910827
H           83.60790817023887        0.83045585069167       -0.23736543176003
H           85.55195556596109        4.02577672862846       -3.61859943409657
H           85.64351536634435        6.30015184746510       -4.58209980918039
H           85.05760622014218        8.49467286798093       -4.29459295585502
H           83.46541543860270        7.81559967038832       -1.22043038555117
H           83.38330482675248        5.53881729327719       -0.24748815848824
H           87.09725844105814        4.24382046181006       -1.49087513718198
H           88.90480608435657        2.38817714423587       -0.77055184664639
H           88.74500581536023       -2.61649786789833        0.82734809899031
H           86.83892239260054       -4.34574320370682        1.54714485600032
H           84.99424112500736       -0.73329551336012        0.37921970661466
H           85.27763178048592       -4.09671190621678        3.65168518404841
H           85.20455888763254       -6.39566825911974        4.57162262787653
H           83.53182650743668       -9.03085092732293        2.92696600820689
H           82.89362593934047       -7.67078538106375        1.19889275037979
H           82.97596551270178       -5.38052251068442        0.27350511486980
H           81.48502994392145       -4.01728747922619        1.94556316443457
H           79.68848573501131       -2.15489518167550        1.20418670238672
C          183.74876969044757       -0.02642378208376        0.10259516624642
C          183.13046600104261       -1.08187206809595        0.76064322374743
C          183.77347354617669       -2.17398253122931        1.40803062469879
C          182.80472508584407       -2.98196840604518        1.93363321476673
C          181.53840631979955       -2.40331854534675        1.63431172963156
N          181.78581203223504       -1.26674771610796        0.91765708314435
C          180.27113806685759       -2.88752434431639        1.97903356711734
C          180.22636655788142       -4.12892935386661        2.78928578191461
C          179.58231239999637       -5.26785847854914        2.30401345973727
C          179.53914001596272       -6.43208633205423        3.05497860676953
C          180.13891527139430       -6.46662879297796        4.31175559112240
O          180.11770181864372       -7.58468353503438        5.08205469866837
C          180.78322778120324       -5.33557792482934        4.80966828797048
C          180.82702391706158       -4.18015194130090        4.04967086657077
C          179.06225325792593       -2.28733099989387        1.61738573811077
C          177.75985297182888       -2.76597872072426        2.04496543250181
C          176.84821881438378       -1.93726477591742        1.49514460714193
N          178.91999268710856       -1.17732108729465        0.84211442449283
C          177.59489658947572       -0.94847557749939        0.74188863398978
C          176.96902625528463        0.08566334694575        0.01732132572004
C          177.61290935146499        1.11029842039666       -0.70090071881392
C          176.97691462032725        2.12621372797230       -1.46270777535835
C          177.94995498883213        2.92413880328771       -1.99758009129830
C          179.21149654325711        2.42533270459451       -1.56934672622866
N          178.95559877288184        1.32330964070476       -0.79640058170857
C          180.47740092894060        2.93279535470487       -1.88099873046624
C          180.52102794229063        4.15954794897638       -2.71234950759185
C          179.91406023153641        5.33966259770572       -2.27479686843382
C          179.95263947350776        6.48617173076243       -3.04825301668134
C          180.59767295259621        6.46540218124660       -4.28353831561135
O          180.61225351850092        7.60652106240185       -5.01933870283848
C          181.20498347060982        5.29568795630164       -4.73449982368809
C          181.16741352111032        4.15410803319461       -3.94916949306873
C          181.68746169795574        2.36530724480112       -1.46619039453701
C          182.99637893292919        2.93684132566579       -1.74150397959176
C          183.90127335361879        2.10495626869598       -1.18710482717636
C          183.14619256484892        1.03231631045482       -0.56418964949690
N          181.81664753656258        1.22747270878851       -0.74365110646613
H          184.83406106372698       -0.03916750792894        0.11549772745225
H          184.84162138824180       -2.31540842071162        1.45236322480817
H          182.94890836462136       -3.90355944032372        2.47386812542976
H          181.06485673759786       -0.65366859457213        0.55208821889440
H          179.12609695746974       -5.24640056657982        1.32059264154741
H          179.04235924567001       -7.31595878597336        2.66941906862728
H          179.64001378239419       -8.30345924068603        4.64664377156195
H          181.24088095223499       -5.37499858478300        5.79043772677812
H          181.31469274479380       -3.29606073210832        4.44515435498142
H          177.58802647662816       -3.61097475607444        2.69186901217961
H          175.77394435498567       -1.96503968664844        1.58368572010809
H          175.91013553283219        2.22145335029665       -1.58597044828886
H          177.80931031226086        3.77686824591839       -2.64152568326767
H          179.67344213774868        0.74798159866270       -0.36820640183941
H          179.42477033880033        5.36133294136309       -1.30736252440167
H          179.48932765611909        7.40390172726384       -2.70764352594998
H          181.08626824484452        7.48257179622044       -5.85259887892517
H          181.70229043175436        5.28271828369215       -5.69845932351853
H          181.62823147379058        3.24060091108405       -4.30818232096886
H          183.17362906006358        3.85774821746877       -2.27350228598478
H          184.97689692072615        2.18745430849022       -1.17595239210120
C           92.90188435081613       -0.15878031468583        0.00368017603229
C           91.67376557914358       -0.14816782787598        0.00687236848148
C           90.32938657928082       -0.12862180256580        0.00770485813957
C           89.10589945729050       -0.10101757288793        0.01121228383213
C           94.24627272313013       -0.16069805924284        0.00269063465254
C           95.47018918980869       -0.15257397167364        0.00279485333584
C          108.92133042296797        0.01815027028055       -0.01386047966179
C          107.69245871349506        0.01410395005414       -0.02714809506596
C          106.34959586637397        0.00787034790479       -0.03919170115504
C          105.12518391710775       -0.00223472268124       -0.04963384926605
C          110.26416975750220        0.01922996456275       -0.00333146883139
C          111.48866660826479        0.01993186449725        0.00723893696997
C          124.93881676955394        0.01306641456363       -0.01151539684652
C          123.70990359031356        0.01936037126675       -0.02105540670099
C          122.36711260325399        0.02679704910043       -0.02988049257489
C          121.14254603978053        0.03027317416887       -0.03726086759573
C          126.28159597545707        0.00566832326875       -0.00171398816201
C          127.50610196501951        0.00172679220369        0.00790540671339
C          140.95649059738224        0.02908859381281       -0.04199409509702
C          139.72757766884041        0.03300822615691       -0.05010005160364
C          138.38475784772447        0.03695579968462       -0.05608281140805
C          137.16016857689507        0.03671594858370       -0.05757326235511
C          142.29929609590889        0.02403319008085       -0.03502427089662
C          143.52381871042539        0.01852258956152       -0.02542854778077
C          156.97453960432392        0.02149401570696       -0.03389028375151
C          155.74569884753478        0.01903731540188       -0.04323501744863
C          154.40277668595243        0.02021381445614       -0.04994886231475
C          153.17821777664682        0.01934471415560       -0.05550812198367
C          158.31746995284800        0.02374748490594       -0.02577212006091
C          159.54188459409451        0.02840778444371       -0.01484416898520
C          172.99403502969102        0.12976087437354       -0.02497867263628
C          171.76612586303469        0.13430417223549       -0.03209687837393
C          170.42124334930006        0.13286816580536       -0.03978120816944
C          169.19758897842294        0.12468850132995       -0.04486732919913
C          174.33900375507949        0.12051077004120       -0.01326657492905
C          175.56236499587456        0.10546661994782        0.00068048722575
C           96.87548526523919       -0.13920577951990        0.00576499997692
C           97.51260952804152       -1.24313007461010       -0.59258010322667
C           96.87172726447901       -2.34173249825470       -1.22138858622068
C           97.84318173767724       -3.17254838149954       -1.70930763463183
C           99.10656843834569       -2.60918748272345       -1.38292155815007
N           98.85560359777656       -1.44318154901982       -0.70991736320653
C          100.37080959958234       -3.11504431005853       -1.71045530945908
C          100.39869676025037       -4.40700780519670       -2.43985347460563
C          100.95949422924643       -4.48613773317214       -3.71510509422637
C          100.98371553272897       -5.68802561471156       -4.40515680738300
C          100.44980706595229       -6.83293909949996       -3.81816216016778
O          100.45512789890455       -8.03098008148072       -4.45693909551071
C           99.89034325873811       -6.76854534905287       -2.54328555545693
C           99.86357765635398       -5.56258037207838       -1.86548047294291
C          101.58829799032203       -2.50291958261299       -1.40841714040231
C          102.88311237414835       -3.09040075073018       -1.70177485927504
C          103.80950407909866       -2.22341798826385       -1.24304574459758
N          101.75019676606121       -1.30804029963166       -0.77484319456130
C          103.07929088049551       -1.11271813504987       -0.66512204595208
C          103.72158247660097       -0.01154988330183       -0.06275991915423
C          103.08406532327751        1.08519955296613        0.54959540549907
C          103.72466284485610        2.17403931470413        1.19515388335040
C          102.75295117733319        3.00977019653354        1.67420040205918
C          101.48994645127760        2.45859883734009        1.32630757217788
N          101.74145928941233        1.29344074915989        0.65154430037189
C          100.22540148275826        2.97605137817713        1.63282014860314
C          100.19746708812251        4.27252491364249        2.35351398403939
C          100.75968052479135        5.41754844257462        1.78360605178859
C          100.73363576262319        6.62825973217421        2.45280840089591
C          100.14739610596355        6.70831725154235        3.71472129076265
O          100.14339864577003        7.91059386935536        4.34538601279569
C           99.58653096351333        5.57410414880073        4.29739200607931
C           99.61045052673938        4.36737497594593        3.61591032623371
C           99.00750883768642        2.36997333647315        1.31822690565581
C           97.71282957625579        2.96800329616379        1.59005058387158
C           96.78660991861442        2.09708797787104        1.13852573555953
C           97.51672175992880        0.97422011855951        0.58458547195760
N           98.84635151913588        1.16765352088663        0.69995039813356
H           95.80359432952923       -2.46735839374948       -1.29543631010830
H           97.69840525873332       -4.08848520267466       -2.25848771643593
H           99.57267204373925       -0.81410892884839       -0.36430255593753
H          101.36441311995341       -3.59306962025168       -4.17788220237971
H          101.41447119752986       -5.74166370975000       -5.39924573757241
H          100.86978381241450       -7.96447494462401       -5.32758893777104
H           99.48360946786183       -7.66758517323863       -2.09701482367288
H           99.44078218026182       -5.51654475192817       -0.86804026307889
H          103.04080820731225       -4.04523111407484       -2.17652759035542
H          104.88403623253940       -2.30796093948137       -1.27294433947438
H          104.79257863173862        2.29118293418893        1.28448864670145
H          102.89722335390074        3.92113769269765        2.23104943410728
H          101.02459172538862        0.67175119024761        0.29246782988043
H          101.20329449561928        5.35957012579896        0.79586889749199
H          101.16148685096091        7.51904560750367        2.00973008283611
H           99.70757365013635        7.85558809161999        5.20646430185740
H           99.13522084399696        5.63981132741200        5.28157692357973
H           99.18491545276650        3.48252586439098        4.07595147417635
H           97.55511008391414        3.93139754570725        2.04715003978592
H           95.71227705427418        2.18658343908507        1.15834653556012
C          112.89225800270303        0.01283504324762        0.01563091088736
C          113.51405113820761       -1.08693403983872       -0.60789461292662
C          112.85749975561930       -2.16146521974935       -1.26112590476175
C          113.81698586519933       -3.00270166865016       -1.75527799138246
C          115.08789107966787       -2.46947583800814       -1.40908883131412
N          114.85364239416349       -1.30959812943847       -0.71936752611846
C          116.34483967995956       -2.99606284315200       -1.73228873373519
C          116.35279393942386       -4.28196768614447       -2.47251506390626
C          116.92311560686608       -4.36333701641841       -3.74336780024079
C          116.92755996424881       -5.56017781782229       -4.44257440198339
C          116.36398140049226       -6.69782356730813       -3.86932134185306
O          116.34904491745147       -7.89069103894654       -4.51745170271516
C          115.79470769635400       -6.63122007038547       -2.59888567297733
C          115.78777610261594       -5.43019831919942       -1.91200321008912
C          117.57112730374854       -2.40931546053717       -1.41616881134535
C          118.85731386518998       -3.01564610588014       -1.70851986747974
C          119.79579709694693       -2.16668305526159       -1.24060487081831
N          117.74975160780896       -1.22246075822312       -0.77187599876766
C          119.08134444395465       -1.04895392512628       -0.65669600236252
C          119.73904264351799        0.03828580401800       -0.04558631679999
C          119.11730146511265        1.13716901638336        0.57944867420607
C          119.77388732042427        2.21063713540580        1.23442007644297
C          118.81443876480280        3.05202203961726        1.72837443748223
C          117.54348690861022        2.51998746621210        1.38036684299907
N          117.77776461659256        1.36041254422340        0.69001429224284
C          116.28653886194768        3.04752892710282        1.70178492273882
C          116.27801901767322        4.33371657540355        2.44138116544568
C          116.84651130531590        5.48099356694153        1.88239400419726
C          116.83791577701567        6.68253891285449        2.56834802129421
C          116.26328465744207        6.75073798370365        3.83628255926705
O          116.27628856883835        7.94418002425702        4.48336649474597
C          115.69646078557469        5.61400303725168        4.40817180459828
C          115.70275852675765        4.41662128181114        3.70995407610182
C          115.06013900232186        2.46144409794577        1.38418709115540
C          113.77395770339449        3.06902754503715        1.67400541218513
C          112.83549155341508        2.21979238873615        1.20650312914796
C          113.54992509632838        1.10083680593146        0.62511359178455
N          114.88160025936845        1.27391123099788        0.74132072863301
H          111.78786743108699       -2.26572673271339       -1.34552825995404
H          113.65924609885130       -3.90628803927663       -2.32107829461796
H          115.57971144514869       -0.70066685419632       -0.35690890455892
H          117.35089570752871       -3.47563633138002       -4.19577040788831
H          117.36569368508954       -5.61543795757679       -5.43333962402245
H          116.77281090586774       -7.82662547819878       -5.38388495556873
H          115.36470712374327       -7.52464716659250       -2.16328561376981
H          115.35699194357009       -5.38258113802314       -0.91805886285996
H          119.00144585647777       -3.96950855900020       -2.18948439502110
H          120.86893649826726       -2.26825020604194       -1.26728501492468
H          120.84352117789351        2.31407307994421        1.31995070583371
H          118.97221372217258        3.95493413329079        2.29524457092479
H          117.05168859371386        0.75213940371777        0.32648163766096
H          117.28117147369449        5.43233826646807        0.89018731292056
H          117.27052590216276        7.57523456094030        2.13382406898270
H          115.84791662904986        7.88141116709700        5.34764002220995
H          115.25422032586853        5.67044706699961        5.39704115584455
H          115.27242791694414        3.52964244240362        4.16135299005024
H          113.62970864832661        4.02384558675589        2.15302332476640
H          111.76236802272473        2.32191089119542        1.23178097193449
C          128.90958743308587       -0.00548104557829        0.01822617914590
C          129.53295219050281       -1.10584241412828       -0.60257336636951
C          128.87811523163182       -2.18426849435964       -1.25105520666759
C          129.83898634887458       -3.02680649840328       -1.74031834103018
C          131.10902608113497       -2.48985817457694       -1.39665065349715
N          130.87288328133351       -1.32694656158443       -0.71273251004427
C          132.36671722934460       -3.01552949087909       -1.71842394615344
C          132.37622680790207       -4.30755319690434       -2.44792920847080
C          132.94358458145857       -4.39930084706151       -3.71937486182161
C          132.95043288661000       -5.60292792004293       -4.40685267997814
C          132.39226049438014       -6.73687749270402       -3.82111881199982
O          132.38029867748503       -7.93617642793090       -4.45730986743694
C          131.82537480707117       -6.65971981319944       -2.55021215774688
C          131.81599013810811       -5.45207492075647       -1.87511487916960
C          133.59215589790648       -2.42294633250028       -1.40989206883551
C          134.87944657650090       -3.02554417810761       -1.70508469124291
C          135.81663094891047       -2.16996725174194       -1.24672381605397
N          133.76895892438333       -1.23211234333921       -0.77242264096366
C          135.10037040712481       -1.05269352078345       -0.66417260763682
C          135.75658842080719        0.03834650898080       -0.05822169122595
C          135.13337749190833        1.13378414811725        0.57139476425313
C          135.78869918467799        2.20725458591658        1.22758154735981
C          134.82819493596688        3.04220457315012        1.73032945952871
C          133.55778709885854        2.50674836869284        1.38564422791588
N          133.79348128836440        1.35130092670250        0.68889336301119
C          132.30010505488690        3.02825772886258        1.71399920430517
C          132.28921150303594        4.30848257340383        2.46381225161916
C          132.85301793496134        5.46246435235227        1.91402758677029
C          132.84255770684643        6.65760734124570        2.61108789863438
C          132.27074864379713        6.71248878140837        3.88094855503471
O          132.28215432501551        7.89985890969182        4.53911444716500
C          131.70815236676671        5.56902006221862        4.44351221739538
C          131.71624875271806        4.37819001928887        3.73424651761142
C          131.07459958912398        2.44123221793874        1.39480067829563
C          129.78774738061063        3.04609156919335        1.68730618283214
C          128.85025704341663        2.19839471129040        1.21510082035189
C          129.56593873303726        1.08235208839655        0.62962390689246
N          130.89739778984332        1.25631111825462        0.74675788589329
H          127.80863508923797       -2.29039047813174       -1.33520438045752
H          129.68285649148567       -3.93355559591296       -2.30150227446506
H          131.59787934529916       -0.71528603707421       -0.35272730593543
H          133.36717068038240       -3.51462307962683       -4.18152905891987
H          133.38643600317488       -5.66640677587160       -5.39806351304365
H          132.80262576870962       -7.87940097966867       -5.32495834756533
H          131.39932226136432       -7.55025841586255       -2.10492713157585
H          131.38711572060453       -5.39607352336294       -0.88077743753489
H          135.02536161537324       -3.98130770238249       -2.18170654781839
H          136.89004142169131       -2.26714824306305       -1.27823268970265
H          136.85829179730297        2.31468523715658        1.30854780935022
H          134.98508285455910        3.94302804698356        2.30074346169078
H          133.06818646488557        0.74147915070849        0.32638988038637
H          133.28540092470649        5.42426560851382        0.92037372041189
H          133.27163184467582        7.55550773581137        2.18384723576221
H          131.85616171129345        7.82784620690621        5.40384698434122
H          131.26786249581457        5.61510751672071        5.43378841176115
H          131.28916432714055        3.48590892208471        4.17822972879471
H          129.64253511469320        3.99859150608308        2.17063330239700
H          127.77705063018946        2.29954335005264        1.24039500131393
C          144.92726949675080        0.00701014287327       -0.01116236265613
C          145.54898957428293       -1.09620691859937       -0.62852703302995
C          144.89275928666521       -2.17334906242234       -1.27776283349275
C          145.85243251093897       -3.02031237431999       -1.76167343848223
C          147.12311235010071       -2.48745747822768       -1.41394619603986
N          146.88852924730807       -1.32237959829608       -0.73313048394738
C          148.38005531207611       -3.01831204842074       -1.72995027232235
C          148.38762659097054       -4.31177647247302       -2.45692055275844
C          148.95975045994251       -4.40829482650099       -3.72587649402065
C          148.96503483497420       -5.61340915501652       -4.41075992766271
C          148.40034967991579       -6.74407824421669       -3.82491784429979
O          148.38663421407520       -7.94469283333917       -4.45862194004063
C          147.82854292593845       -6.66214173540333       -2.55652448806741
C          147.82088078342582       -5.45304374924588       -1.88400283636297
C          149.60652116282290       -2.42966835363243       -1.41772471105711
C          150.89280177543827       -3.03674266917914       -1.70815768110317
C          151.83128098441992       -2.18386868454650       -1.24740363433329
N          149.78509836686294       -1.23905690527811       -0.78046045869652
C          151.11678063349626       -1.06387807436748       -0.66800477562464
C          151.77455969454792        0.02493569405949       -0.05997015322470
C          151.15292307948195        1.12187164635258        0.56863392294888
C          151.80968418546567        2.19189317713798        1.22900878700605
C          150.85038535024069        3.02989411273697        1.72896261594876
C          149.57932404227230        2.49995503423936        1.37821905031953
N          149.81337916107023        1.34438142109551        0.68115443162877
C          148.32227164639639        3.02657089136582        1.70107538060286
C          148.31342941623203        4.30569147928166        2.45276023510148
C          148.88696435269395        5.45754113061558        1.90854622115707
C          148.87943843795037        6.65133364537488        2.60794781206000
C          148.30062829888723        6.70703744989861        3.87459805953830
O          148.31538053950624        7.89294568236600        4.53532240983681
C          147.72791503352497        5.56580738448886        4.43146608392251
C          147.73330582302984        4.37632947149614        3.71990759506293
C          147.09587474173043        2.44525289976674        1.37496340211383
C          145.81015037087744        3.05558464667456        1.66101749316214
C          144.87144268315421        2.21199326655369        1.18389214540138
C          145.58528841830321        1.09288694070469        0.60199602842122
N          146.91685170591572        1.26128203045218        0.72561973120857
H          143.82324007017067       -2.27568350865381       -1.36599765998801
H          145.69515074359106       -3.92754052291402       -2.32175655172135
H          147.61436003995939       -0.71295359690899       -0.37103042788932
H          149.38838735517831       -3.52614961215251       -4.18821787327469
H          149.40487301013033       -5.68058716241523       -5.40003193776405
H          148.81290142453818       -7.89130751335601       -5.32455889852504
H          147.39738404698210       -7.55015843685007       -2.11110520409544
H          147.38820438547245       -5.39341262428601       -0.89152416787276
H          151.03724259265906       -3.99327781973173       -2.18366645373724
H          152.90447617665720       -2.28450379617274       -1.27536260645111
H          152.87933087059122        2.29508574059457        1.31455228574597
H          151.00854459810455        3.92927835087614        2.30128459199106
H          149.08717295801119        0.73787926732398        0.31493204421586
H          149.32483824389826        5.41885902455715        0.91731967156475
H          149.31632722977713        7.54752271486980        2.18505462422505
H          147.88415825933856        7.82167040614693        5.39752251983550
H          147.28205214625993        5.61252564677550        5.41921821902259
H          147.29849959736518        3.48568913618165        4.15967072712805
H          145.66656768246216        4.00864862657945        2.14372693266539
H          143.79856324363828        2.31777685812357        1.20364128163273
C          160.94559725298404        0.03077603025170       -0.00027418412457
C          161.57814895364785       -1.07050537244897       -0.60951835140877
C          160.93273172115227       -2.15746939141620       -1.25352757405886
C          161.90066065135375       -2.99905629871949       -1.72986661762604
C          163.16614034480537       -2.45338115969279       -1.38208888399663
N          162.91982132213190       -1.28576123285004       -0.70968676051587
C          164.42822503157919       -2.97681760420760       -1.68825253543126
C          164.45005906045961       -4.27424264841713       -2.40764142404507
C          165.03318044362712       -4.37272913100150       -3.67151390024439
C          165.05131286830488       -5.58054449007908       -4.35131840298904
C          164.48853514724749       -6.71211212639736       -3.76539962463894
O          164.48700614530918       -7.91536233527134       -4.39438151884673
C          163.90619381642961       -6.62841390940931       -2.50193967775491
C          163.88583332464793       -5.41662177852697       -1.83447541198658
C          165.64892035823172       -2.37606278814663       -1.37408613833812
C          166.94106277385157       -2.97867922805238       -1.64837893775913
C          167.87107716106885       -2.11297172746119       -1.19475486768648
N          165.81524299181800       -1.17628606139573       -0.75271283366797
C          167.14585332940001       -0.98899287868443       -0.63649103122386
C          167.79158573708500        0.11734514787256       -0.05012668448108
C          167.15975655031471        1.22043297236727        0.55485311447088
C          167.80586198335874        2.30995256961683        1.19434253211626
C          166.83844588938561        3.14437304094508        1.68378645237355
C          165.57232242885368        2.59299840717776        1.34726979794488
N          165.81770660945577        1.42946930414184        0.66798384022140
C          164.31030729144351        3.10780666110160        1.66926674664197
C          164.28823084933177        4.39646626328302        2.40442224307520
C          164.84187598436333        5.54906586838301        1.84161020997327
C          164.82119557276329        6.75182402662977        2.52524277484033
C          164.24897910139714        6.81606515866185        3.79447600655035
O          164.25004871781505        8.01085826912368        4.43916331153064
C          163.69625996949406        5.67418545397733        4.36988400769312
C          163.71477181574190        4.47553437453689        3.67408898596102
C          163.08987998457002        2.50674365821130        1.35645805500029
C          161.79787891889717        3.10435574098914        1.64160413205168
C          160.86765308392248        2.24485275397898        1.17656191957034
C          161.59277772404053        1.12858399270140        0.60299592064926
N          162.92268458238172        1.31400468335852        0.72036051147289
H          159.86432338687982       -2.26943872992532       -1.34364328744162
H          161.75243298349434       -3.91098490348403       -2.28476502649645
H          163.63950512786576       -0.66743023859757       -0.35043893761079
H          165.46029601376614       -3.48992724410849       -4.13401632897709
H          165.49957731516884       -5.64912357995953       -5.33670704728208
H          164.91901270058713       -7.86247800986417       -5.25749636192167
H          163.47681407704002       -7.51720030541431       -2.05633465772558
H          163.44500672608501       -5.35570636844396       -0.84566990813281
H          167.09452931546932       -3.94124612746577       -2.10868196723292
H          168.94505446546827       -2.20673489168923       -1.21517479793744
H          168.87451684771608        2.42718180033386        1.27418930606027
H          166.98762029499221        4.05508510926080        2.24040806020703
H          165.09752126931718        0.80802232088955        0.31516691811372
H          165.27446621360059        5.50349303898350        0.84835627808707
H          165.24257501020062        7.64851127750400        2.08792175047536
H          163.82607411828974        7.94461695168479        5.30534410183678
H          163.25550377383618        5.72761052223452        5.35958723237512
H          163.29543489411728        3.58467337546017        4.12819794431183
H          161.64463168078606        4.06036578284756        2.11543490829257
H          159.79365987785113        2.33792351766703        1.19942970050474
