195
 energy: -388.395628659460 gnorm: 0.000414591115 xtb: 6.5.1 (b24c23e)
Zn          36.56093825845320        0.00444432553630        0.01612826402486
C           33.15361932625063       -0.02317193426405        0.03677114421980
C           33.78150374470075       -0.22101432081261        1.26045039775262
C           33.10647604407957       -0.46692777858459        2.50448761744997
C           34.06308261910532       -0.59376418957395        3.45714499874486
C           35.33564590880786       -0.41406908049665        2.80805849555608
N           35.12968640407512       -0.20361851930646        1.47632196242103
C           36.58583710896433       -0.46483021119665        3.43614792687355
C           36.59810492765271       -0.69045118884729        4.90218712413041
C           35.99519999678461        0.22684215620251        5.76667213607010
C           36.00180055839180        0.01370705358422        7.13534391894059
C           36.61221144695721       -1.12849838233366        7.62762407738003
S           36.62530133819205       -1.40520891878484        9.35829948128572
O           36.47483237602396       -0.17024613433582       10.06928880402901
O           35.23560067477526       -2.23894305438329        9.47528326059123
O           37.69608982014714       -2.28337067141821        9.73066415037563
C           37.22189536578735       -2.05471061930999        6.79684278033417
C           37.21362016002683       -1.82845235286961        5.43063647650928
C           37.82643405327727       -0.33106739940182        2.80113389039742
C           39.10260509193466       -0.32067057396791        3.46287160465581
C           40.04988504030705       -0.17638842477786        2.50176746199816
N           38.02119632918374       -0.17315797915879        1.45674894182974
C           39.36358151678488       -0.08943266503757        1.24555367442165
C           39.99372982813180        0.02256350941374       -0.00645435801073
C           39.34649741189053        0.12975248749270       -1.24999248508471
C           40.01536108658507        0.22772592045582       -2.51474163644838
C           39.05407782609009        0.36587065023983       -3.46282789592653
C           37.78661115027128        0.36004163224250       -2.78449554466201
N           38.00063238060663        0.19977474267385       -1.44340300653785
C           36.53637802616004        0.48029065622421       -3.40326431747975
C           36.52853352653305        0.71006073758685       -4.86877739887691
C           35.92691303135364       -0.21242509742795       -5.72867107440036
C           35.91631464112082        0.00361828133806       -7.09679539802015
C           36.51122914545545        1.15215013405363       -7.59355929901442
S           36.48935302733427        1.43763166059448       -9.32269906148762
O           36.68663512651227        2.82706600496632       -9.61636617830308
O           37.85435541065470        0.64601212890236       -9.71081998217953
O           35.38490065914628        0.75945667154642       -9.93416656149205
C           37.11154235218523        2.08784162966388       -6.76672784181415
C           37.11938465064233        1.85934692274773       -5.40078653089952
C           35.29503861519241        0.40966398205901       -2.75989643776087
C           34.01184012789863        0.57127865199303       -3.39269755547528
C           33.06917563344777        0.42503902981789       -2.42908129352352
C           33.76329554635990        0.18643249017007       -1.19412281907243
N           35.10884528932112        0.19130503069524       -1.42644366122423
H           32.06813749876845       -0.03244969466762        0.04329966616161
H           32.03654653605552       -0.53962937290913        2.62048968793777
H           33.92450382884969       -0.80126071570391        4.50610547059398
H           35.53356182161210        1.12010732933372        5.36227572574611
H           35.54637156427162        0.72316984016977        7.81476173748481
H           35.13916438464459       -2.60346107354544       10.36344396251157
H           37.69513059811594       -2.93373921046322        7.21606195810887
H           37.67480507095619       -2.54617187718923        4.76216767306076
H           39.25234986566703       -0.40029466732665        4.52755960006096
H           41.12015366996506       -0.12837302465749        2.62532895177197
H           41.08441002793236        0.19125134207355       -2.65228491941562
H           39.18882818395795        0.45159418679151       -4.52907079593455
H           35.47754561358615       -1.11044419957363       -5.32099255857476
H           35.45178652486758       -0.70409149396930       -7.77186492919737
H           38.06537023380556        0.78414174841056      -10.64218403814452
H           37.55660975799270        2.98062624698538       -7.18774388167991
H           37.57218775466670        2.58495137639615       -4.73510147421891
H           33.85703377591766        0.78083859055444       -4.43894551505217
H           31.99687332286561        0.48061579909169       -2.53174163618921
Zn          58.38114478612425        0.00500299755765       -0.03265539222280
C           61.78946376583806        0.00184018131736       -0.03852535624316
C           61.16889121358466        0.06206102520082       -1.28028357034385
C           61.85226815001288        0.10138006351457       -2.54331703321420
C           60.90084655865339        0.15127346389262       -3.50824886183086
C           59.62289986558883        0.15055620995491       -2.84516133142772
N           59.82102640510300        0.08950047939171       -1.49728012926620
C           58.37604281678697        0.16880974852104       -3.48166010740159
C           58.37414924149934        0.26305896178688       -4.96239758659341
C           58.91586238811787        1.38560388248325       -5.59413949176655
C           58.90637547604715        1.48979248006440       -6.97517617560497
C           58.35585087023347        0.45645012872923       -7.71597261003416
S           58.32649931525845        0.58934911904945       -9.46344350644807
O           58.39209891491892        1.96308086106066       -9.86608177441712
O           59.75895930488613       -0.10852996162652       -9.78089721638282
O           57.30031669745037       -0.23991488400167      -10.02513363169492
C           57.81361363584688       -0.67040054512983       -7.11939163563019
C           57.82410846311416       -0.76128641917591       -5.73727521139171
C           57.13081770292185        0.11446301589492       -2.84450902858472
C           55.85488615879983        0.17255324512070       -3.50448612155978
C           54.90264261637864        0.11744012199755       -2.53929169892838
N           56.92949215180811        0.03783951616767       -1.49358189303796
C           55.58505630634671        0.03824354821033       -1.28037236840107
C           54.94926335116141        0.00485094696538       -0.02663810134353
C           55.58926903251618       -0.02778097108517        1.22498384747049
C           54.91098939401900       -0.10246168632951        2.48644677227683
C           55.86646264177107       -0.15506960943117        3.44867664297138
C           57.14015801240438       -0.10052465834427        2.78416306913558
N           56.93432677499173       -0.02814824008598        1.43369531271093
C           58.38757514820178       -0.15438784556858        3.41692253909781
C           58.39265695088895       -0.24530147703956        4.89789805453564
C           58.94260627076437       -1.36460613664458        5.52858673640932
C           58.94968856261740       -1.46216261796069        6.90997209851686
C           58.40339476278205       -0.42749296017088        7.65227102707389
S           58.42224574426891       -0.54088671085883        9.40119132320369
O           58.27465544074594        0.75330026709789        9.99946610213263
O           57.02867245677129       -1.35269115080643        9.60046447541796
O           59.49553267826941       -1.38095339827308        9.84513965339358
C           57.85672339318958        0.69773002373129        7.05699300712172
C           57.85199577446084        0.78269266669486        5.67429533125883
C           59.63218245710092       -0.13821505948046        2.77577386231604
C           60.91251798533879       -0.13705490741411        3.43442620141594
C           61.86060573617743       -0.09182235862019        2.46610497290188
C           61.17289981867714       -0.05600396040272        1.20531088568798
N           59.82571907896832       -0.08198608389737        1.42699351716532
H           62.87501370292238        0.00090406524924       -0.04027283446471
H           62.92401505609205        0.08509669730223       -2.66409862079331
H           61.04595833280576        0.17344440945153       -4.57646736741229
H           59.32946591244180        2.18888020073367       -4.99553876314507
H           59.31151850514661        2.36129676010943       -7.47387450180657
H           59.85755699326543       -0.24841586805962      -10.73050276944091
H           57.38766704953439       -1.45745174834907       -7.72892122311723
H           57.41381560973979       -1.63884318362660       -5.25134224968037
H           55.70742126761562        0.25871146273949       -4.56893139566189
H           53.83128899504205        0.13976994062698       -2.66062009132033
H           53.83996680230732       -0.12312557612763        2.61119737424079
H           55.72283397593579       -0.23648891558484        4.51405249647477
H           59.35448342482555       -2.16798386828628        4.92893039488409
H           59.37409418283090       -2.32462531968598        7.40837968423519
H           56.85904129959408       -1.49584666762058       10.53950680234258
H           57.44950259395726        1.49337240173649        7.66815786048047
H           57.44113180209037        1.66057669403425        5.18944086584857
H           61.06150743438869       -0.15427042246142        4.50216645240241
H           62.93274335493015       -0.07558289186794        2.58318356114153
C           41.40762905794411        0.02789588075375       -0.01472959582111
C           42.62287187172080        0.03349963695549       -0.01638413545234
C           52.32026193018146        0.00925124442532       -0.02848128592782
C           53.53555697031943        0.00602392311838       -0.02445128848045
Zn          47.47340154335587        0.02199670056597       -0.02243173183399
C           44.03655549994154        0.03099443326017       -0.01917510299516
C           44.68001353892581        0.94882560859387        0.82964245877819
C           44.00589984654336        1.87173286194298        1.69541274021670
C           44.96363573568883        2.60964889920574        2.31216165586615
C           46.23366621238146        2.14653885947118        1.82438428598500
N           46.02542598007762        1.12854360645381        0.93534395708618
C           47.48143333249887        2.64426096018412        2.21808213343363
C           47.47934349876996        3.81200692042459        3.13343973136880
C           48.06137491880732        3.73210770526852        4.40096534041904
C           48.06837434597548        4.83278581696168        5.24226470038659
C           47.48935557810145        6.01184035979819        4.80135492796817
S           47.51674036614665        7.41677398010474        5.84959429352319
O           47.34928625602961        8.61630449935341        5.08417496538792
O           46.14520939353282        7.13191918413307        6.67170338674843
O           48.60542150118944        7.34380358132565        6.77994656487681
C           46.90442799278454        6.12235451525552        3.55034567199053
C           46.89989992236473        5.01461926359113        2.71944673347215
C           48.72720740696788        2.15630407161945        1.80752431737535
C           50.00271130362997        2.69294478384144        2.19568801602507
C           50.95423487431559        1.94882116384013        1.57712674662984
N           48.92702003374726        1.10972206728867        0.94916157387951
C           50.27111585530656        0.96151253360138        0.79326521943190
C           50.90678697047053        0.01283818315375       -0.02732671873287
C           50.26423998641119       -0.93242700697486       -0.84637800823766
C           50.94003522762847       -1.92250589480558       -1.63315275121014
C           49.98286399568077       -2.66310834028900       -2.24722152299290
C           48.71129371741382       -2.12127932748485       -1.85348459161595
N           48.91889637111333       -1.07504575802420       -0.99662493074065
C           47.46206088246359       -2.60441207942313       -2.25862989557248
C           47.45164698066156       -3.77440065053785       -3.17134118272726
C           48.02014612655604       -3.69592584083936       -4.44501431282485
C           48.01818216016412       -4.79760622263601       -5.28495189387656
C           47.44469924023376       -5.97631890374046       -4.83584544869804
S           47.45808866548701       -7.38130847721182       -5.88412363524166
O           47.28524202094002       -8.58003453261591       -5.11861072407205
O           46.08473969118181       -7.08620830025572       -6.70037083555067
O           48.54272826856204       -7.31617655629860       -6.81978495434088
C           46.87416176992593       -6.08568634556967       -3.57813601985839
C           46.87772384964912       -4.97659837813863       -2.74894256711370
C           46.21787873672972       -2.09943240763093       -1.86345993373223
C           44.94461272963789       -2.55687125905874       -2.34800666087399
C           43.99202992952761       -1.81141413944688       -1.73226896226936
C           44.67274447550173       -0.89054722562970       -0.86943811387009
N           46.01691661369455       -1.07804279304126       -0.97678877102163
H           42.93603429829222        1.93883935934774        1.81321488281808
H           44.82475190554956        3.38917960565141        3.04382342138910
H           48.49956366289157        2.79778794392095        4.73198453042601
H           48.52031641981458        4.78299409346258        6.22498072444928
H           46.08685091168982        7.71945031962593        7.43495088595847
H           46.46943708127081        7.06185390992174        3.23344786379172
H           46.46006450095732        5.08335475102136        1.73126675807138
H           50.15112035148260        3.53801145900251        2.84831966398121
H           52.02542522532342        2.06049376981940        1.63209177183057
H           52.01055148078838       -2.03791772117306       -1.69340152537000
H           50.12461284737334       -3.50861938986526       -2.90078228547814
H           48.45446397969020       -2.76180840062912       -4.78158787049772
H           48.45869233997762       -4.74883650822716       -6.27288029656580
H           46.02123271253875       -7.67061997423882       -7.46555177336187
H           46.44366094820935       -7.02517142605259       -3.25510661967811
H           46.44825823858359       -5.04388378319191       -1.75610407039762
H           44.80060402062139       -3.33820890952019       -3.07679438975517
H           42.92164469409951       -1.87228149819187       -1.84883373025703
