384
 energy: -707.342093262985 gnorm: 0.000568981694 xtb: 6.5.1 (b24c23e)
C           92.17910730517588       -0.02801509862080       -0.06713015270722
C           92.78375273409915       -1.27759682824347       -0.02427697556640
C           92.12750637350476       -2.53941292000565        0.02961882395393
C           93.08646122308609       -3.51243670637444        0.05085520606027
C           94.35983060914710       -2.87630146126987       -0.00026046223263
N           94.12637495197758       -1.53106201496845       -0.03411403365740
C           95.62183370394239       -3.48122808096302        0.00294460327850
C           96.84001039687718       -2.79716652170716       -0.01369570353545
C           98.13445080013415       -3.45091083826532       -0.08767219905984
C           99.05835137243749       -2.46825622124969       -0.09236640761469
N           96.99925188322524       -1.44561573003461        0.00642794051739
C           98.32815420220898       -1.21680076091854       -0.02705672880761
C           98.96826316753325        0.03781385238831       -0.00940345914199
C           98.33775571466630        1.29561814895072       -0.00301569624857
C           98.98401235837616        2.55821806943470        0.06721153548670
C           98.02031460938800        3.52806746317711        0.05642201030601
C           96.75388286478722        2.88598156184270       -0.02842204146942
C           95.49309650843206        3.49261213926692       -0.05050799186056
C           95.46635356342902        4.97380571410323       -0.04138402050119
C           96.07273200951674        5.70017745900821       -1.07020068207903
C           96.04594039787720        7.08242148736414       -1.05896389605701
C           95.41798502725848        7.76564097410024       -0.01574668385063
C           95.41814924675889        9.24784150711323       -0.04727442651164
O           94.79429317668129        9.80740883997319        1.00033208064864
O           95.92295429353486        9.90917812590277       -0.91857898427003
C           94.81373007438424        7.04569332949499        1.01538209492720
C           94.83657006789473        5.66216560591743        0.99902900635037
C           94.27430138183028        2.80626247483225       -0.07820959068921
C           92.97306951468612        3.45143649901442       -0.16422625120713
C           92.05649232703871        2.46301321246987       -0.16905408659634
C           92.79659551678361        1.21534079735180       -0.09545935585574
N           94.12933034599959        1.46050290738852       -0.05260844507945
N           96.99724851000785        1.53848687305243       -0.05318219991698
C           95.65086609979068       -4.96307438395597        0.02097387956610
C           95.07138427103078       -5.69574567183299       -1.01806582337012
C           95.09840337335554       -7.07939946542642       -1.00380679034322
C           95.70199726173018       -7.75428637114684        0.05759424885147
C           95.75128441207931       -9.23467988816887        0.12334663979542
O           95.17773865237606       -9.83799817287040       -0.92885557992347
O           96.25088044398348       -9.85907401058535        1.02421556969139
C           96.28086610626272       -7.02635694725554        1.09898099832780
C           96.25816231786979       -5.64414562962000        1.07958353703009
H           91.09385236838504       -0.03343165203465       -0.07908809067210
H           91.05764058379717       -2.67154975810093        0.05466942314564
H           92.93146495322536       -4.57773128665191        0.10569669325999
H           94.85442788375734       -0.82491084060834       -0.05782900760330
H           98.29276738338288       -4.51547447382007       -0.14629863410357
H          100.13116428723268       -2.55684475409308       -0.14930888471410
H          100.05089403660212        2.69829678602448        0.13090659204867
H           98.17041228243922        4.59364579382090        0.11547342580961
H           96.54852785776983        5.17211236280992       -1.88882886967731
H           96.50896124788815        7.65173173952867       -1.85748352487810
H           94.83868147062100       10.77267816665019        0.90467592769993
H           94.32884218389569        7.57176592842795        1.82919711684094
H           94.37888981512357        5.10336907659194        1.80750861233105
H           92.80931594911911        4.51516361689863       -0.22718405792524
H           90.98183373302712        2.53833387869524       -0.22396781734609
H           96.27331031260451        0.82833013777755       -0.08875600155345
H           94.61460117204538       -5.17212488068418       -1.85040520071824
H           94.65254613741277       -7.64010002640076       -1.81682483278640
H           95.25301495397665      -10.79887481501282       -0.81106623869089
H           96.74530969238134       -7.56111190754079        1.92021989947652
H           96.69745669947942       -5.08064690104061        1.89482216696776
C          153.39169954227390        0.05770639746053       -0.01881339640925
C          152.79941275810862        1.29861801944659        0.17624867719888
C          153.46804851407100        2.53638585467392        0.39332997212205
C          152.51901349183467        3.50911583463552        0.53332113234082
C          151.23945753575532        2.89902373199874        0.39248835582536
N          151.45963993613813        1.56634851416856        0.18950982042674
C          149.98360326850158        3.51199977778747        0.46138338160164
C          148.75919114980249        2.84844489146542        0.34208817126551
C          147.47167285737950        3.52006963545629        0.33818060028610
C          146.53831875942865        2.55505625108050        0.20810985326555
N          148.58736413400391        1.50703280737013        0.19589934925974
C          147.25594677088529        1.29733818668944        0.12676471161323
C          146.60473559840472        0.05304654188090        0.03452750379138
C          147.22232973786546       -1.20685310324045       -0.05840585895121
C          146.56308035725218       -2.46274897721258       -0.13213197173892
C          147.51690634259975       -3.43432451471385       -0.25673676409599
C          148.78965234719462       -2.79903384939462       -0.27453331150873
C          150.04336376811236       -3.40992731816913       -0.39010359903464
C          150.05184163510722       -4.87989907716050       -0.57477955310284
C          149.42299463464030       -5.45542514709556       -1.68267156309161
C          149.43017259941345       -6.82697631578661       -1.85576650886026
C          150.06146066071139       -7.65062699458757       -0.92167721085530
C          150.03883564151894       -9.11529405091148       -1.14971420955689
O          150.67387917712298       -9.81686808488792       -0.19889642982410
O          149.50750887969085       -9.64860599453614       -2.09038801471721
C          150.68907076918148       -7.08174858151114        0.18702366376072
C          150.68520578296079       -5.70811935442961        0.35550789279146
C          151.26875980483527       -2.73627036048667       -0.35169378437284
C          152.56259568839644       -3.37733685446265       -0.53044916812845
C          153.48886955914145       -2.40371982216346       -0.42461447190050
C          152.76189379915601       -1.16757029802720       -0.19326492420510
N          151.42741550046054       -1.40458195074711       -0.16589985327192
N          148.56053645059620       -1.45610203366438       -0.13756962476110
C          149.96602042335368        4.97721841716701        0.68417866524910
C          150.56435400960089        5.84505574486725       -0.23276787185649
C          150.54719998144111        7.21283909262465       -0.02146333120059
C          149.93453016711749        7.73522012151429        1.11793212662361
C          149.89230508017184        9.19149892715247        1.39258821520192
O          150.48869770322432        9.93373144834724        0.44747214559151
O          149.37863084979006        9.68560960344105        2.36389304573830
C          149.33715673193254        6.87158001515453        2.03816945147352
C          149.35028946655794        5.50626098798789        1.82206825415635
H          154.47694298006252        0.05416496830172       -0.03235738861028
H          154.53899950750736        2.65220575482874        0.44187389882022
H          152.68447045300940        4.55690320342905        0.72479640056526
H          150.72478114732360        0.87681353734341        0.07220054715079
H          147.32432757550956        4.58542231264886        0.41005482385681
H          145.46604364422743        2.65947509269819        0.16802681476374
H          145.49421451557851       -2.59745410428869       -0.09312112898919
H          147.35604186640856       -4.49792633518990       -0.32283817087474
H          148.94460176148627       -4.81719781556811       -2.41698340909830
H          148.94909355990933       -7.27902715462170       -2.71620975806794
H          150.61462793087108      -10.76013121522172       -0.42149488219719
H          151.17680255099594       -7.71749539820136        0.91649017214245
H          151.16070035639069       -5.26769288124835        1.22457528749322
H          152.71538182549889       -4.42700435902875       -0.72320905279663
H          154.56215187800794       -2.48130929370442       -0.49969351547241
H          149.29133489894372       -0.75285854612196       -0.10482332746500
H          151.02788870817031        5.44148574439826       -1.12599278296144
H          151.00760318135036        7.87972351603800       -0.74083366629756
H          150.41608381836812       10.86867911638517        0.69938800025516
H          148.86618440824529        7.28791012026083        2.92189312377240
H          148.89646219456952        4.83625559262428        2.54338956685379
C          100.37780380825853        0.04967812211241        0.00590432454141
C          101.59441468746135        0.05892540673906        0.02273278335451
C          111.27141473790812        0.08159687707705        0.07415494488537
C          112.48903575938580        0.08270037629610        0.07735266634888
C          122.16827435042956        0.07238962888820        0.08262822019598
C          123.38648018268015        0.06711529356092        0.08274342010600
C          133.07513607731497        0.02848463290122        0.05939107826939
C          134.29346929559676        0.02268499364567        0.05522762095426
C          143.97711162830385        0.05035034400690        0.03782784317150
C          145.19330820911549        0.05292446614925        0.03888263410054
C          103.00317125084302        0.06684982529891        0.03868823036017
C          103.62820579048874        1.18697640260213       -0.54044599523848
C          102.98178234687612        2.27699735531193       -1.17857271683765
C          103.94535239647364        3.15680187597913       -1.59015123158016
C          105.20939202337762        2.63132258959964       -1.20786400874587
N          104.96802275385839        1.43453377901798       -0.58901093635311
C          106.46810554234540        3.20689453667115       -1.42231714585739
C          107.69228724006162        2.63030959563695       -1.07954737240574
C          108.97150500258833        3.29952923781999       -1.23307688496688
C          109.91073602739549        2.42697667663767       -0.81324247381420
N          107.87439867119667        1.38802487442925       -0.55309756144177
C          109.20490502336723        1.22997710839075       -0.40136253018845
C          109.86420331456101        0.07854947033192        0.07361475558022
C          109.23799274790473       -1.08656873030690        0.55634690480211
C          109.88344215324848       -2.27163475974820        0.99416197243463
C          108.91940862080378       -3.14752150696324        1.41228093654075
C          107.65543915835627       -2.51940415850320        1.24472254889157
C          106.39748822176909       -3.05305772754126        1.55122454930590
C          106.38982907894420       -4.38869075511186        2.19444895324594
C          105.75436137199729       -5.46975827036308        1.57768466899192
C          105.75659950098169       -6.71534292380045        2.17800507307700
C          106.38910260958713       -6.90274656244754        3.40846807042088
C          106.36456603624686       -8.25715148870201        4.01226297162929
O          106.99731868296725       -8.32948072873151        5.19258853436758
O          105.83507521038680       -9.21537128901595        3.50989807776874
C          107.02141910505577       -5.82596859565130        4.03052456485824
C          107.02305856042857       -4.58151837366437        3.42520429204484
C          105.17120166252251       -2.43328782166004        1.30385297148429
C          103.88886595623536       -2.98758094665268        1.69957712552241
C          102.94958188902187       -2.11835155246890        1.27322190915807
C          103.65897475747514       -1.03207496938808        0.62636092558821
N          104.99111733124478       -1.23975939724830        0.67485241949687
N          107.89786286592293       -1.28249752632553        0.71018470367686
C          106.48533878075503        4.54030946496175       -2.06948864285044
C          105.84837355979157        5.63027034730531       -1.47007520792578
C          105.87263085827475        6.87266041679032       -2.07653311799477
C          106.52849526733230        7.04769668185299       -3.29650723006663
C          106.52613821028702        8.39910243263133       -3.90734325416987
O          107.18003229755479        8.46029383312332       -5.07657378218920
O          105.99464252770863        9.36381564472044       -3.41952670472218
C          107.16301689010278        5.96213766008902       -3.90099982927686
C          107.14250429654528        4.72097180878566       -3.28952764555198
H          101.91593328847206        2.36559899224153       -1.31244728969725
H          103.79549773493432        4.08204220258708       -2.12201486815542
H          105.68839185516144        0.81780729488005       -0.22855391483899
H          109.10954858294689        4.30590721926839       -1.59360639256804
H          110.97864763038085        2.56429438440093       -0.76208706947650
H          110.94879039743037       -2.43245014972476        0.97840287978521
H          109.06887408210974       -4.14542625345519        1.79071851461493
H          105.27438519654970       -5.32950474415350        0.61589085607559
H          105.27102173298144       -7.56021161200309        1.70207088896888
H          106.93792267594789       -9.24221085110184        5.51867994791925
H          107.51010878385743       -5.96548594713078        4.98753770474176
H          107.50354721601821       -3.74203608129754        3.91515049958276
H          103.74860716467232       -3.90746572483885        2.24355241062447
H          101.87934089852033       -2.17723351737892        1.38786060789914
H          107.17728863343297       -0.61335952286692        0.46077831793151
H          105.35139676809693        5.50055215654013       -0.51531088259545
H          105.38666742768122        7.72436794108673       -1.61332559185024
H          107.13542473313130        9.37202672030563       -5.40778254936209
H          107.67057850162742        6.09267543510709       -4.84941973919916
H          107.62569395747126        3.87464522461901       -3.76456073462643
C          113.89598549309595        0.08730190321178        0.08003352044612
C          114.52504300523448        1.01116758240499       -0.77671718551875
C          113.88708303100071        1.89041327724828       -1.68869565961622
C          114.85353291862943        2.65335929254514       -2.28569272587897
C          116.11073337130681        2.26452386122238       -1.74924379586773
N          115.86379236626964        1.25499733638611       -0.85856919197557
C          117.36785383460767        2.80490366566776       -2.04986226507754
C          118.58732779912009        2.34317520607335       -1.55080655879488
C          119.86045142748506        2.99657206568411       -1.79418195828408
C          120.79940665996860        2.23675221974107       -1.19305868453382
N          118.77132811877297        1.23022318814415       -0.78815524441272
C          120.09983233669477        1.12421580617894       -0.58301614632703
C          120.76184406172483        0.07514255974895        0.08732385399242
C          120.13065901932376       -0.98188709655796        0.77232726974680
C          120.76587829978813       -2.08174074945601        1.40307487455141
C          119.79931535440922       -2.83750349687219        2.00879897630055
C          118.54414814453766       -2.21700072576096        1.76679829917990
C          117.28878645354379       -2.63319052616496        2.22850667724039
C          117.27524903495625       -3.79368030492802        3.14928721804672
C          116.55646893281050       -4.94765411652626        2.82445670920743
C          116.54420404894749       -6.02843950161048        3.68652544163078
C          117.24680565191127       -5.97549416204027        4.89187051770101
C          117.19891409109084       -7.15763248227768        5.78576915908638
O          117.91527838310412       -7.00916043353219        6.91001319629859
O          116.58276007599959       -8.16508990404258        5.54790273609942
C          117.96548095135543       -4.82602735019439        5.22167699482177
C          117.98017885263819       -3.74717185105725        4.35530048981291
C          116.06771318066322       -2.04450944897859        1.89425347776547
C          114.79296369934538       -2.44155241319721        2.46387217364693
C          113.85371708312533       -1.68272319687713        1.86180082143231
C          114.55581184847975       -0.82045852627007        0.93260412940613
N          115.88487284025830       -1.04065091234541        0.99299074244316
N          118.79239498400621       -1.11322152802131        0.99601399560536
C          117.38835193292682        3.96070303263803       -2.97644232701009
C          116.68780214224184        5.13111858333855       -2.67102068386525
C          116.71246864390258        6.20648484427950       -3.53968231785481
C          117.43391794076693        6.13142476477081       -4.73265730600230
C          117.42690805404995        7.30975718458747       -5.63285793162631
O          118.16210702914758        7.14186030116724       -6.74197549145141
O          116.82615295638779        8.33025679334375       -5.41154671790422
C          118.13382459108291        4.96520369295604       -5.04345441503766
C          118.11132628901758        3.89172672032408       -4.17066278569488
H          112.82534272219111        1.92302859963269       -1.86968626850423
H          114.70985492260820        3.41005267820319       -3.03946675304743
H          116.57929737262040        0.75961629163883       -0.33729271077004
H          119.99444168345863        3.92058143484367       -2.33280809771290
H          121.86279603892716        2.40319763094956       -1.13933554497253
H          121.82584799386782       -2.27304958707292        1.38329037971136
H          119.94136104981267       -3.75100860067260        2.56262246005926
H          116.02151285310615       -4.99611785843861        1.88287268454435
H          115.99227350395472       -6.92833058100660        3.43820097035773
H          117.83453750994850       -7.82121227395795        7.43626795478693
H          118.50920380287144       -4.77885878747630        6.15777674701687
H          118.52596718878983       -2.84841437145730        4.61986536537402
H          114.65748703872669       -3.18544290943996        3.23204895927677
H          112.78861419204173       -1.67721214681652        2.02744655581604
H          118.07835473949022       -0.48498853673383        0.64316248625672
H          116.14012410034309        5.19859844332790       -1.73782627897131
H          116.17608392951014        7.11953584922783       -3.30567472074795
H          118.10880272266604        7.95318605836259       -7.27283993269582
H          118.69265491801582        4.90118628312938       -5.96959814549744
H          118.64403762223830        2.98064783472075       -4.41872110487861
C          124.79271667832543        0.06626138791058        0.08077511451325
C          125.42554772800973        0.93261890763128       -0.83241874959350
C          124.79472666541704        1.75533469086560       -1.79965474450701
C          125.76385928101850        2.49374240724377       -2.42286770824215
C          127.01587154226613        2.14466237884844       -1.84877937183540
N          126.76397091978744        1.17898851119194       -0.91209787613830
C          128.27114169804250        2.68901052855631       -2.15071133401869
C          129.48906012754827        2.25695468451356       -1.62208216134152
C          130.75782949625676        2.91839958420013       -1.86606322205888
C          131.69856835684229        2.17930228271917       -1.24208260347439
N          129.67646669677492        1.16278284384103       -0.83373743451332
C          131.00456921021370        1.07176229256423       -0.61743733036950
C          131.66851327151159        0.03396734098163        0.06881194351561
C          131.03355569847261       -1.00779187706077        0.77389674836927
C          131.66175227007599       -2.10207888254378        1.42079601246198
C          130.69271512397472       -2.83218496340399        2.05371494827149
C          129.44290777000316       -2.20037592908045        1.81342039031251
C          128.18915310198199       -2.58144531876128        2.30921039451543
C          128.17150286697265       -3.71240070282238        3.26566726179253
C          127.41873705838744       -4.85815475358954        2.99204883250509
C          127.40191070327606       -5.91271584082887        3.88580875684973
C          128.13357144367615       -5.84112802629076        5.07280346465741
C          128.08019688842791       -6.99554521776368        6.00187346441913
O          128.82457377587136       -6.83069986583130        7.10549387814173
O          127.43763964765034       -7.99572712172350        5.80697736509140
C          128.88541048885645       -4.69950844875155        5.35206645411981
C          128.90474418409227       -3.64709362691817        4.45380443182852
C          126.97167424008570       -1.98366922657011        1.97758891528153
C          125.70397266622953       -2.33027437835394        2.59384412811695
C          124.76338795771291       -1.58830483417587        1.97299256787815
C          125.45697151220256       -0.78900059197001        0.98369384306677
N          126.78422126002022       -1.02289730399037        1.03142101908007
N          129.69605469815997       -1.11860168869054        1.01372336994087
C          128.28800996182471        3.81723799887263       -3.11020917397254
C          127.55696158051592        4.98031482593575       -2.85086919900853
C          127.57487922215714        6.03146623241928       -3.74862349808918
C          128.32028288605781        5.93912892924377       -4.92554231693306
C          128.30514010423931        7.09191269890852       -5.85807779646894
O          129.06407985988648        6.90974478451187       -6.94881425979796
O          127.67909863119448        8.10491505578590       -5.67585490733379
C          129.05072353470646        4.78028928637971       -5.19047644880550
C          129.03480817593780        3.73103968459548       -4.28852986585545
H          123.73599287543961        1.76924689631436       -1.99827228594169
H          125.62483044479383        3.20761107221849       -3.21812355835616
H          127.47491674939988        0.71586304032838       -0.35620926261105
H          130.88752126296902        3.83345985102401       -2.42078179521259
H          132.75946879471576        2.35794214263685       -1.18085314317602
H          132.71882031099256       -2.30750810912895        1.39336335212078
H          130.82972899459924       -3.73525356053996        2.62563670893480
H          126.86069692395468       -4.92127946999633        2.06483166603541
H          126.82388408104400       -6.80625416560392        3.67703188310867
H          128.73820498174504       -7.62541160931627        7.65673339183160
H          129.45129218077159       -4.63756009693948        6.27406363543299
H          129.47640211805128       -2.75385735283262        4.67954321712333
H          125.57464237887031       -3.03030446700518        3.40321870762893
H          123.70295136470669       -1.55481898358250        2.16213048353813
H          128.98649101585286       -0.48921868170451        0.65403152936000
H          126.99023188510330        5.06150163232733       -1.93021098863035
H          127.01441588172813        6.93846199659173       -3.55023279489469
H          129.00368728573542        7.70515528492480       -7.50251082943708
H          129.62787250800412        4.70289747981157       -6.10428196072293
H          129.59087791543578        2.82507410454996       -4.50155410693391
C          135.70041900076976        0.02613479548819        0.04926162343079
C          136.32699434614415        0.90883042515363       -0.85255336243893
C          135.68690685506766        1.74151231003307       -1.80561440181324
C          136.64924099130815        2.48607381945486       -2.43088276401466
C          137.90744665388274        2.13100762162137       -1.87334219834232
N          137.66438663525525        1.15883085699487       -0.94063016635898
C          139.16006997574124        2.66454713155340       -2.20205162113820
C          140.38549048531908        2.22853196524415       -1.69375398215908
C          141.66024513753368        2.85245980984200       -2.00124789559260
C          142.60420646699984        2.12219503845995       -1.37239070297288
N          140.57275565796621        1.16466481451112       -0.86689266133436
C          141.90460351165510        1.06179155114153       -0.67405014235248
C          142.56672853032245        0.04681853578796        0.04108219998552
C          141.94625074834417       -0.98611866282770        0.76690764330451
C          142.59479515390387       -2.03171614753566        1.47388433822790
C          141.63351696432341       -2.77425062885627        2.10365054827446
C          140.36949507651860       -2.19445450207855        1.80875858614669
C          139.11547680794183       -2.60181404874398        2.28107300197226
C          139.10278016097277       -3.72922333001879        3.24287187167327
C          138.40145617539329       -4.90118595627413        2.94505364548151
C          138.38701008237621       -5.95335779074546        3.84156970064593
C          139.06902642651136       -5.85263073223939        5.05579099372749
C          139.01913009889333       -7.00539209518483        5.98681739073523
O          139.70926146294900       -6.81005708539549        7.12054235857416
O          138.42315002305645       -8.02954585504790        5.76949761963229
C          139.76874240443124       -4.68442146505072        5.35932519439856
C          139.78641605235609       -3.63442895451166        4.45793430846749
C          137.89144901213155       -2.03078988097664        1.92703226725750
C          136.62249601472112       -2.40635737574427        2.52348984983753
C          135.67800044688201       -1.66690543407350        1.90600554088300
C          136.36952389059326       -0.84163526022721        0.93669877711537
N          137.69918702445221       -1.06077213839253        0.99116391209962
N          140.60739694661800       -1.13166324429125        0.98016212964274
C          139.16372542223314        3.78183924979488       -3.17557709097115
C          138.46765746156751        4.96234392933588       -2.90010608664732
C          138.46961023223750        6.00303206821737       -3.81024530553920
C          139.16291648521343        5.88185602835911       -5.01604161879981
C          139.13058789387108        7.02312351235773       -5.96195317316765
O          139.83171409410244        6.80927110855718       -7.08540391762757
O          138.53808454593252        8.05329678809418       -5.76423499879186
C          139.85806951094872        4.70519356372247       -5.29698123161964
C          139.85888330603038        3.66671765549171       -4.38238422927916
H          134.62653308140119        1.75532780420310       -1.99457369072062
H          136.50282279319828        3.20812011388239       -3.21737182399051
H          138.38152385792628        0.69285395295290       -0.39511713205271
H          141.79255366153771        3.73541653083123       -2.60519005362254
H          143.67232506244747        2.26832973371588       -1.36506403336714
H          143.66100067154895       -2.18939482527132        1.49466191825721
H          141.78480816139478       -3.64984095732141        2.71351645977580
H          137.88097384227947       -4.98520179151437        1.99786694134088
H          137.84892762128396       -6.86715065696372        3.61453306079097
H          139.62589863946923       -7.60481105234939        7.67216219999903
H          140.29534112237002       -4.59978097163271        6.30256445826581
H          140.31715297411540       -2.72102366543959        4.70206428335035
H          136.49453380861098       -3.12265322988538        3.31872120783230
H          134.61556540184569       -1.65201040154583        2.08541994600132
H          139.88692202632652       -0.53292643882156        0.59078493635177
H          137.93986810795147        5.06452482867830       -1.95862635880460
H          137.93600059071275        6.92343261320997       -3.59987926317058
H          139.76103181850559        7.59809994507409       -7.64717904938361
H          140.39446955542425        4.60535171112065       -6.23315903410594
H          140.38707086575258        2.74711508132059       -4.60745230869620
