236
 energy: -357.285665137881 gnorm: 0.000711005155 xtb: 6.5.1 (b24c23e)
C           27.29475466339370       -0.12473681389609       -0.00634565363385
C           27.91774296784230       -1.36511942831396       -0.05794573790447
C           27.29111468448147       -2.64185002719613       -0.12120729023916
C           28.27341645086850       -3.59137408371100       -0.15803269764965
C           29.53138523005390       -2.92459107657936       -0.11783318009576
N           29.26619527151565       -1.58593155587714       -0.05807652426193
C           30.79897356900241       -3.51119637737453       -0.13397261072604
C           30.83757842753654       -5.00173959583126       -0.20624525018881
C           30.86501086864580       -5.63801092261959       -1.45053117821500
C           30.85901980666867       -4.81930003201315       -2.71399778983910
C           30.90111245637249       -7.02635867420257       -1.50766964751389
C           30.91071972138995       -7.78950427535780       -0.34478371915876
C           30.93181690436254       -9.29241434146265       -0.41885078374728
C           30.88170073053090       -7.14572894865864        0.88806195502645
C           30.84616826819272       -5.75858643949260        0.96886928923251
C           30.82060846315082       -5.06953291627609        2.30724760854259
C           32.01273750111600       -2.82707735540214       -0.09192312003436
C           33.30459291970678       -3.48962545554685       -0.10769563741757
C           34.23485628827969       -2.51342284328619       -0.05965099079926
N           32.17927219721643       -1.47664900874701       -0.03428958391257
C           33.50917329379800       -1.25814234012032       -0.01570331025624
C           34.14987822730678       -0.00254648656425        0.02980377047264
C           33.50109689199130        1.24588702943661        0.07072492481454
C           34.12166134938904        2.52273368732630        0.12113058235115
C           33.13537332811995        3.46939395435961        0.15803559543699
C           31.88145245012170        2.79749799712473        0.13051456684536
N           32.15466445997770        1.45597917644967        0.07752482573293
C           30.61508778005498        3.38440935664464        0.15315025154528
C           30.57235371826155        4.87502257116594        0.21349347802380
C           30.57067236210790        5.62129438310169       -0.96853399439695
C           30.61298039234600        4.92034739713889       -2.30031181262133
C           30.52884945975385        7.00889962829516       -0.90073120778512
C           30.49041771227267        7.66387169642339        0.32596508421006
C           30.42626349448059        9.16620623217373        0.38507665243023
C           30.49080092057813        6.91126980128731        1.49570598674377
C           30.53129050560828        5.52252009703955        1.45158018668737
C           30.53004999991703        4.71551266082510        2.72256206700730
C           29.40014403593382        2.69722731933499        0.12251863494646
C           28.10197261124891        3.35308878721407        0.14464259403396
C           27.17796048985041        2.37197508314329        0.10017343770414
C           27.91135202895606        1.11885787714459        0.05080894570125
N           29.24641485938482        1.35294325040830        0.06626886053088
H           26.20975039768219       -0.13780445274432       -0.01326673875476
H           26.22433127882729       -2.79897247856953       -0.13640644117421
H           28.15022602017666       -4.66133704613309       -0.20845411720479
H           29.97239950343540       -0.85880496487313       -0.02021813849916
H           29.95467727736672       -4.21001615018518       -2.76680636151446
H           30.89947353897388       -5.46077498214257       -3.59376790953477
H           31.71705431258078       -4.14485621937016       -2.73231784249062
H           30.92462303704646       -7.51971738555877       -2.47387169844466
H           29.90993291689213       -9.67886202382547       -0.42596271135960
H           31.42820513255272       -9.62971000844287       -1.32903635383961
H           31.44809092503976       -9.71629529208673        0.44284895606046
H           30.88966243018125       -7.73307480731015        1.80047556103594
H           29.91194019293812       -4.47315729754666        2.40961187355626
H           30.85517631287660       -5.79504202703281        3.11928747297310
H           31.67410489376420       -4.39589485583716        2.40266886905208
H           33.45025790170350       -4.55714017260168       -0.15012972916623
H           35.30920000194302       -2.60582323372172       -0.05436157151701
H           35.18758491804272        2.68444865712932        0.12856872965698
H           33.25526675574182        4.53989079584747        0.20131977789027
H           31.45109061666780        0.72560002800658        0.04845995413838
H           30.58669652177403        5.63857940721189       -3.11913501961694
H           31.52405698234029        4.32507570489297       -2.38667560049444
H           29.76200395250413        4.24396557599810       -2.39971830661136
H           30.52737878372625        7.58789465371000       -1.81849241704343
H           30.87147125335042        9.53841173982853        1.30802146241016
H           29.38497623018428        9.49532420987114        0.35318890669623
H           30.94775934686041        9.61065167543028       -0.46303494084182
H           30.46028116759171        7.41340058859808        2.45718521523403
H           30.49620175290944        5.36547915871307        3.59635065161514
H           29.66494556004292        4.05032024616874        2.74747159578804
H           31.42787717748267        4.09734601228888        2.78071483619332
H           27.95098352881546        4.42004502466316        0.18746743380178
H           26.10235222195865        2.45551799583917        0.09903332837191
C           66.28167241991733        0.11609938618896       -0.02025741789003
C           65.66120242807681        1.35162280376102       -0.15400741038064
C           66.29046439774362        2.62175020220754       -0.28594792106159
C           65.31008986722226        3.56794153157101       -0.39313521559274
C           64.05073705012038        2.90552110019675       -0.33056527659003
N           64.31316368676603        1.57286555105140       -0.18561363411235
C           62.78446478379161        3.49067531160580       -0.40500935960546
C           62.75051319262455        4.97443418814511       -0.56562356734685
C           62.75154770768413        5.53815829321336       -1.84464978941701
C           62.78294420627532        4.64798943302782       -3.05844007009541
C           62.72087123312637        6.92100322433216       -1.98217096883727
C           62.68887827413879        7.74975439690005       -0.86546280711546
C           62.67469041337584        9.24596597836322       -1.02624042935396
C           62.68978021920292        7.17787209303053        0.40262690555916
C           62.71954746873471        5.79762064263927        0.56368335017084
C           62.71623751482906        5.18673622498836        1.93971382173555
C           61.56893035496438        2.81136203454957       -0.34251937151741
C           60.27865769370300        3.47138154461844       -0.42981445064790
C           59.34601998946295        2.50142784351691       -0.32878182982515
N           61.39902552555538        1.46833401085779       -0.19257601446030
C           60.06870475834034        1.25264097274534       -0.17924400330993
C           59.42529071661593        0.00588288725111       -0.03439568062039
C           60.07199333685001       -1.23576292806709        0.11372135069959
C           59.44878041648397       -2.50427986366191        0.25623868401831
C           60.43309747627685       -3.44795048480783        0.36064672048640
C           61.68833978048982       -2.78233445186238        0.28512628614831
N           61.41792849036861       -1.44730300164701        0.13771724825330
C           62.95329956236495       -3.36958106155179        0.34588294350526
C           62.99131798608848       -4.85352438892509        0.50006696779974
C           62.99137368622124       -5.67178913042985       -0.63336335768905
C           62.95300392164833       -5.05485214176886       -2.00621105167317
C           63.02690320169611       -7.05263432080590       -0.47942844895918
C           63.06010696424109       -7.63027115428890        0.78568242136118
C           63.11607268538047       -9.12635796987731        0.93787906922915
C           63.06139110803692       -6.80646250854240        1.90640797142070
C           63.02746534848341       -5.42294455309862        1.77603398049986
C           63.02964582487353       -4.53839041016450        2.99430707087793
C           64.16991156657139       -2.68875340998180        0.27225858207122
C           65.46651759187611       -3.34443647588937        0.34078415293066
C           66.39284371355339       -2.36970723655074        0.23965300414290
C           65.66239273125606       -1.12078435091224        0.10846972714280
N           64.32676865280965       -1.35102092462865        0.13166716349612
H           67.36671180028968        0.12755621699599       -0.01776065431184
H           67.35757315637281        2.77704634130442       -0.29612994469420
H           65.43553080913260        4.63283696413268       -0.50623947459503
H           63.60557183705496        0.84977802876065       -0.11273251981944
H           63.68842469331814        4.03807528878080       -3.05784115901053
H           62.76006186111987        5.23758263594313       -3.97440144273062
H           61.92573136980233        3.97228912709823       -3.05497167833611
H           62.71970078628804        7.35813757140671       -2.97535735642081
H           63.69817688114836        9.62789966970498       -1.04263046779041
H           62.19121660885462        9.53185531408501       -1.96066469617553
H           62.14936845259100        9.72060130249260       -0.19710185927146
H           62.66450962085680        7.81667356225194        1.27945565670753
H           63.61962501665558        4.59335565541717        2.09335372370110
H           62.67050345509417        5.95797446355364        2.70790373833761
H           61.85751309869782        4.52339988602336        2.05759861956715
H           60.13557728126511        4.53309415151103       -0.55196422700561
H           58.27187986145424        2.59413740772517       -0.34966132818693
H           58.38255665786880       -2.66308207444425        0.27419331343790
H           60.31095866519833       -4.51241904906752        0.47973569220589
H           62.12289855219938       -0.72232915519092        0.05566122351017
H           62.97617628967556       -5.82275022771251       -2.77871042158480
H           62.04469567991861       -4.46195490062580       -2.13001149995893
H           63.80707575149969       -4.38985509920821       -2.14705890541122
H           63.02700800429373       -7.68753678033151       -1.35944310590604
H           62.67003017928403       -9.43806715709058        1.88256745001397
H           64.15541436562260       -9.46278804285156        0.92529311729768
H           62.59086422383533       -9.61952250150047        0.11949583550877
H           63.08766629108020       -7.24801923665830        2.89727941490200
H           63.05929983287382       -5.13279579069874        3.90693150338792
H           63.89727349195211       -3.87620004399087        2.97951062433888
H           62.13412590106213       -3.91441597371547        3.01197163676723
H           65.61494589461751       -4.40689976841065        0.45111743662795
H           67.46826396172746       -2.45514046963252        0.24892435554902
C           39.35269517612897        0.02363720233298        0.02583569928619
C           38.12415145617128        0.02849997624135        0.02979077135797
C           36.77939218387975        0.02625470354283        0.03202581040907
C           35.55535014997282        0.01624291193122        0.03334322342040
C           40.69723770428494        0.01315089298718        0.01981727893991
C           41.92136751326624        0.00147638418189        0.01138038582509
C           55.45173710729561       -0.04315001284020       -0.03964452486812
C           54.22306996612687       -0.05062094742770       -0.03762908949161
C           52.87875321722399       -0.06123310595179       -0.03974375159497
C           51.65446527303302       -0.07795587044093       -0.04263114868343
C           56.79611644050043       -0.02677460789783       -0.03775141693507
C           58.02017445827794       -0.01355745563825       -0.03656852337501
C           43.32586525171384       -0.01671233202255       -0.00039612945278
C           43.95457539129902       -0.97377184881079        0.81928371249058
C           43.31773108852895       -1.92369292016401        1.65972104437241
C           44.29300665556652       -2.65424870262659        2.28237696926718
C           45.55404900581543       -2.16978778558581        1.83885702379314
N           45.29838088371532       -1.15550918232195        0.95521032642006
C           46.81278575087040       -2.63430755348400        2.23051187186545
C           46.82031713936605       -3.75391936264530        3.21844035314430
C           46.79708339708472       -5.07876559911546        2.77270058379499
C           46.76711091013639       -5.37521789416993        1.29697333654977
C           46.80250763897650       -6.11220264127021        3.70177911375238
C           46.82956107894532       -5.84616235347946        5.06728500408014
C           46.85447063522161       -6.97682487893902        6.06003376622786
C           46.85366494620389       -4.52453023773755        5.49915700176777
C           46.84892794197126       -3.47483509456769        4.58762994747240
C           46.87447538927869       -2.04696138493743        5.06414321564964
C           48.04288747815909       -2.15021031341479        1.79056566824592
C           49.31711674752906       -2.67958481597268        2.24300623911082
C           50.27299319308840       -1.96702894602088        1.61093393474901
N           48.24484541142379       -1.13944968352702        0.90060631273683
C           49.58037491686159       -1.00696501043959        0.77385490878795
C           50.25012197351981       -0.07619022811513       -0.04650390260038
C           49.62090883104378        0.86605207461686       -0.88309723939028
C           50.25742323686661        1.80248976869151       -1.73875241751757
C           49.28180247689517        2.51635796051886       -2.37992482271967
C           48.02096502413148        2.03673608440582       -1.93068271709216
N           48.27703829922842        1.03980284650754       -1.02762485907875
C           46.76225240441280        2.49651939093160       -2.32764158075491
C           46.75469202950903        3.59557637601672       -3.33829567948010
C           46.73130369903144        3.28662505120309       -4.70123267726034
C           46.71088184020086        1.84856960074000       -5.14636743291008
C           46.72410990349401        4.31615587368594       -5.63528169774393
C           46.73910621922872        5.64705617473826       -5.23202067551169
C           46.75006508339995        6.75457516071663       -6.25077750007558
C           46.76307093471210        5.94279062548762       -3.87268587333634
C           46.77036325325534        4.92974138084654       -2.92128210059753
C           46.79240568993803        5.25810423697012       -1.45219409791036
C           45.53243945724130        2.02681295343810       -1.87160730699139
C           44.25843500850069        2.56195062579121       -2.31778706454916
C           43.30287474803421        1.86714111354773       -1.66585716486709
C           43.99541094394673        0.90855138986525       -0.82695244548214
N           45.33080708911612        1.02820231147998       -0.96814281203700
H           42.25004019465631       -2.02705942323665        1.76762506134669
H           44.15908866135013       -3.45829118960992        2.98784470781669
H           46.00778480555023       -0.61518063226693        0.47151718960068
H           45.86878667599833       -4.95190389986206        0.84337509453873
H           47.63222784088942       -4.92885613276092        0.80322947936370
H           46.77627990421350       -6.44954651645570        1.11559680778605
H           46.78413380443738       -7.14059474636194        3.35597555016369
H           46.48603918701632       -6.64993388267203        7.03251362036127
H           46.24309015859113       -7.81036544325492        5.71277389922421
H           47.87776338743590       -7.33790646796476        6.18663953865989
H           46.87519775636086       -4.30696888458389        6.56201591875736
H           45.98601054953168       -1.51546922605972        4.71770081071250
H           46.90700974209047       -2.00037876988005        6.15222775269002
H           47.74920487399815       -1.53008966633881        4.66514030731523
H           49.43483212003451       -3.48644821423565        2.94847002146251
H           51.34470729510910       -2.06119071016857        1.68445875301350
H           51.32508493156486        1.90747494531506       -1.84524259876330
H           49.41525962587726        3.30658000353918       -3.10092445836371
H           47.56786973821914        0.50525118690437       -0.53720273118477
H           46.68297054764412        1.77795848397635       -6.23328500341259
H           45.83566125776984        1.33859766316684       -4.73959550755986
H           47.59905852874991        1.32684582495183       -4.78470654971927
H           46.70428319884562        4.07564923306021       -6.69322017099284
H           46.31247729823331        6.42197131372047       -7.19221156510913
H           47.77762756722531        7.07050677393967       -6.44549576127554
H           46.19354950374364        7.61957275812861       -5.88875173155427
H           46.77398350123613        6.97849380064049       -3.54911871708551
H           47.68993216331713        4.84762105490599       -0.98542219399468
H           46.77878871842082        6.33604743796940       -1.29408628302827
H           45.92641401326379        4.81963049787058       -0.95293340093418
H           44.14066044986981        3.36087069908469       -3.03221707268524
H           42.23140548319827        1.97077856430143       -1.72922587566346
