306
 energy: -480.106410386336 gnorm: 0.000904067760 xtb: 6.5.1 (b24c23e)
Ni          49.48893182018719        0.01754352869447       -0.03244573932993
C           46.08724772136295        0.09776315274079       -0.08558679729821
C           46.75314581710219        1.19395705867198        0.42169413707193
C           46.08828557703483        2.35559319719827        0.92998695602266
C           47.05618032142012        3.21437058965268        1.32707348447263
C           48.31110556702102        2.57649432971769        1.05711985404478
N           48.11578985799805        1.33416935070387        0.50710795589834
C           49.53873409635793        3.16719472166629        1.31250219859365
C           49.56427278482681        4.53822241609564        1.89660137261469
C           49.52383657374096        5.65451701371408        1.05609264149755
C           49.44937038988749        5.46974845616597       -0.43615113337241
C           49.55338966272847        6.92837886824194        1.61113909200173
C           49.62164618414567        7.10632944108558        2.98920887425305
C           49.67636002481212        8.49104755260970        3.57588332994566
C           49.66088736467953        5.98819812484810        3.81569901800795
C           49.63264317245461        4.70475294420286        3.28267769512979
C           49.67559128757181        3.49898591543866        4.18307174204027
C           50.74610211603674        2.54269412927243        1.04280399580486
C           52.01745517503630        3.15120374541961        1.29257975162064
C           52.95955224723475        2.25283767400325        0.91890834427323
N           50.90722895211110        1.28116261300869        0.51646770129513
C           52.26141397719267        1.10001607699103        0.44350155718844
C           52.91088935360831       -0.04498720691711       -0.02227377313518
C           52.22291265947572       -1.16973325863587       -0.48165541365151
C           52.88141819057554       -2.35366501685128       -0.93670659538928
C           51.90925254911807       -3.22553950621239       -1.29596330886096
C           50.65950785500832       -2.56732472898811       -1.06366305339406
N           50.86348477342717       -1.30393545661110       -0.55679850842077
C           49.43182177916297       -3.14718948695740       -1.34089984374145
C           49.40851295222269       -4.52736419276273       -1.90316719475299
C           49.49210925712577       -4.71873099226515       -3.28587904233280
C           49.60380278615456       -3.53036254628045       -4.20325348143612
C           49.47197012527847       -6.00977047257985       -3.79822802903877
C           49.37089036355909       -7.11278318751504       -2.95491833300738
C           49.34335618849712       -8.50183219578372       -3.53334957105390
C           49.28796169711163       -6.91031647405299       -1.58231291027153
C           49.30603898155293       -5.62681232703125       -1.04714140171933
C           49.21760939426382       -5.41548009040931        0.44077649847223
C           48.22592670498074       -2.49875784131675       -1.12465488513697
C           46.95116531626747       -3.08103188828637       -1.42559412138541
C           46.01346440742775       -2.16893186737828       -1.07809742144521
C           46.71645298184249       -1.03266771986505       -0.56376549186042
N           48.07282229556358       -1.23956911074125       -0.60016708669294
H           45.00395245847073        0.12414751247078       -0.10493862880109
H           45.01745698606798        2.47741593649793        0.96955482395510
H           46.95069155608171        4.19411260060950        1.76456094441735
H           48.53063922200744        4.94596030971915       -0.70731572208644
H           50.29100448274545        4.86959579742617       -0.78674337799781
H           49.46684868867838        6.43106151941454       -0.94881134023707
H           49.52228770812064        7.79512202755545        0.95900857605801
H           49.25528313255498        8.50454972640878        4.58140757990286
H           50.71406839653618        8.82728372412748        3.63748019534601
H           49.12784238062408        9.19853612259941        2.95350079140301
H           49.71349645389729        6.11755933622944        4.89178633529937
H           50.56573003321810        2.90239982510657        3.97426812572748
H           49.69297460775459        3.79613062137963        5.23118543950620
H           48.80276214441979        2.86623897869091        4.01199536276725
H           52.15380756106131        4.13988847276138        1.69979823150945
H           54.03297011091701        2.34575560587207        0.95571827682149
H           53.95105416900652       -2.48470280254518       -0.96793490468997
H           52.01177327972424       -4.22572905780638       -1.68472527075321
H           48.75329804412738       -2.86079057480675       -4.06203137141516
H           49.63259806551336       -3.84507641066296       -5.24600024404408
H           50.51223823976567       -2.96624682070585       -3.98320593005773
H           49.53719437175992       -6.16000597802818       -4.87089208826771
H           50.17413955204282       -8.64356909425281       -4.22638388597316
H           49.41037024803951       -9.25422131149485       -2.74767899941490
H           48.41458838101179       -8.66034305754094       -4.08539578647699
H           49.20957495373192       -7.76355991428659       -0.91657060611575
H           48.31985853782376       -4.84618028782043        0.68942503846971
H           50.08039544795697       -4.84879922563052        0.79555543257106
H           49.18338154971610       -6.36836844923751        0.96810506422086
H           46.81292197802317       -4.06255467101846       -1.84979682457802
H           44.93992990529629       -2.23973048220363       -1.15291284185483
Ni          89.84943650462934       -0.01010661545842       -0.08656454902763
C           93.24886856458606       -0.03745368153787       -0.17958952674243
C           92.58133932835537       -1.19024170372037       -0.53803232435707
C           93.24249628821110       -2.39730612683012       -0.93277309405635
C           92.27202964194522       -3.28560925808402       -1.25125733033433
C           91.01918280638183       -2.61684819185180       -1.05670968174698
N           91.21825708020711       -1.33745298409478       -0.60103952005508
C           89.79186479761574       -3.18953111438879       -1.35220017375238
C           89.76190291837031       -4.58008869416025       -1.88774773313295
C           89.87385401510915       -4.80329579305082       -3.26298258596719
C           90.02934340741629       -3.63816879657149       -4.20363807761183
C           89.84012875418574       -6.10546449495572       -3.74822812894530
C           89.69803182257769       -7.18667634928530       -2.88467103964036
C           89.64049591120201       -8.59071839702910       -3.42315573101118
C           89.58761760931404       -6.95236226235967       -1.51781823543102
C           89.61807915951550       -5.65886638476734       -1.01037699310275
C           89.49734869123112       -5.41247198017109        0.46987624862575
C           88.58884781187791       -2.52431789029507       -1.17545932156361
C           87.31837139202176       -3.09394179626912       -1.50784404938440
C           86.37881412170267       -2.18548862106419       -1.15209356846203
N           88.43019484371642       -1.26921165843686       -0.63355345955658
C           87.07730779592741       -1.06753332128113       -0.59979350357345
C           86.43010046339424        0.03860844633804       -0.04514301065874
C           87.12144428837706        1.11914109671351        0.50634748241190
C           86.46871929418491        2.24569953335938        1.09570297472008
C           87.44297276852159        3.11495662340444        1.45617381843773
C           88.68829185308093        2.51605496526280        1.08235861823408
N           88.48022744257916        1.27887290962811        0.51624716439998
C           89.91307217453920        3.14680145416714        1.23350079857305
C           89.93862114281667        4.52203324214766        1.80749567246254
C           89.79851074455100        5.63041561421510        0.96634321335560
C           89.62350732958497        5.43176926440681       -0.51562919742221
C           89.82121061890636        6.90780017696544        1.51179530114001
C           89.97973913788897        7.09814142817793        2.88167600788933
C           90.01015955522449        8.49158860832251        3.44922793555146
C           90.11846799377949        5.98893491959418        3.70790433368296
C           90.09937674634976        4.70093309252675        3.18378237121661
C           90.24895801526887        3.50414110693532        4.08475444444056
C           91.11355023380004        2.55768833992640        0.86793019865107
C           92.38610017533180        3.20286361387397        1.00578046123722
C           93.32199516470097        2.31007254441142        0.60668424647273
C           92.62028772678698        1.12125760659004        0.22681025550093
N           91.26559002976445        1.28644728553957        0.37318004254425
H           94.33212610560909       -0.04480367499763       -0.21235858709725
H           94.31288300283533       -2.52682744716866       -0.95726681266532
H           92.37464898190773       -4.30281428374680       -1.59363664753614
H           90.95438684511277       -3.09944881868515       -3.98889765337833
H           89.20031842633449       -2.93861912918110       -4.08199251348492
H           90.05461735245908       -3.97492039385708       -5.23958957291795
H           89.92666604769806       -6.27897405075190       -4.81589274367607
H           90.04887561039813       -9.29999637645990       -2.70280660514082
H           88.60314398357581       -8.86949191657892       -3.62280930819391
H           90.19916881552841       -8.67298193606471       -4.35572945909709
H           89.47696231081733       -7.78994432188560       -0.83686066260933
H           88.60671955150667       -4.81807387612914        0.68285156095253
H           89.42826952267175       -6.35232791836391        1.01673887885764
H           90.36352847084461       -4.85712793269383        0.83429170633847
H           87.18071859379040       -4.06554088597578       -1.95403317746841
H           85.30656911850592       -2.25349948791706       -1.24111508875053
H           85.40095884104338        2.34383748988799        1.20787087067363
H           87.34447226107329        4.07901261772082        1.92834707684177
H           90.46653529381098        4.87247280731369       -0.92575336546498
H           89.55438351669120        6.38925852221581       -1.03115176094905
H           88.71509617480442        4.86032589097043       -0.71620250561073
H           89.71225798076655        7.76885679050052        0.86046343426691
H           89.17181686709375        9.07773219665264        3.06975385661984
H           89.95998978058245        8.47175615516336        4.53777888175113
H           90.93315950407177        8.99598545671396        3.15545741448405
H           90.24187728238331        6.12679118945426        4.77709797509790
H           91.14571022641525        2.94077504002920        3.81946340494315
H           89.39189971288937        2.83712160201747        3.97533865420845
H           90.32456720843979        3.80907515975229        5.12805865064089
H           92.52459420422942        4.20935318584518        1.36666884895372
H           94.39383101492574        2.42390157876639        0.57048286077170
C           55.53932529471825       -0.08093221050229       -0.02032038520060
C           54.31856006719936       -0.06748821826228       -0.02357554165767
C           56.89130247468383       -0.09078047331733       -0.02491942246666
C           58.11207855861618       -0.09696173678266       -0.02206901395497
C           68.99101170430973        0.00163178969759       -0.03609614570006
C           67.76930386016265       -0.00646971485687       -0.03105470096513
C           70.34084389143824        0.00770824456705       -0.03501349970501
C           71.56250227535705        0.00807218722150       -0.03490473258087
C           82.44939212790129        0.07647027216542       -0.02433862378757
C           81.22865605112872        0.07260391218252       -0.02389802330148
C           83.80160532401555        0.07181920216358       -0.03010292813881
C           85.02226835701684        0.06069844114334       -0.03632803688472
Ni          62.94162665924600       -0.07048608616215       -0.02245528904330
C           59.51924736871092       -0.09651515557657       -0.02067717038854
C           60.18914252682924        0.19239773092373        1.17064423849377
C           59.51491712315472        0.48499790258224        2.39598251252032
C           60.47207082536468        0.60609020620311        3.34734165381688
C           61.72797242563741        0.38848589702228        2.69729638272957
N           61.54459012750439        0.15838308481130        1.35289099362441
C           62.94046757278912        0.35586424523753        3.36816992417825
C           62.94040328865855        0.53631475768746        4.84755270181174
C           63.11111906041769        1.81127248577669        5.39439455157957
C           63.29296513398969        2.99975130610061        4.48838977343376
C           63.11053566856790        1.96726852773327        6.77563238972536
C           62.94266373572284        0.87351462788359        7.61842637789138
C           62.96515665292206        1.05082479845631        9.11261666669944
C           62.77427211468068       -0.39072632548890        7.06265314037093
C           62.77040018980272       -0.57038088479464        5.68448977931828
C           62.58454698993273       -1.94101274444857        5.09016531375238
C           64.15402803496562        0.16723470908787        2.72625927069371
C           65.41078469580769        0.13195133361509        3.40919950947161
C           66.36903538904741        0.03108903171572        2.45644926860607
N           64.33864857757439        0.06251237482995        1.36596994610047
C           65.69420303866433        0.00228004099645        1.19753736304085
C           66.36475340541072       -0.02382104195225       -0.02876801148918
C           65.69139283278243       -0.06957684054639       -1.25298279648720
C           66.36223237072028       -0.08203803831062       -2.51429145108697
C           65.40397579937967       -0.21531151309885       -3.46306616789680
C           64.15131245679086       -0.28545429852758       -2.77527238975583
N           64.33766200754249       -0.17009115930914       -1.41620193022429
C           62.94120245204336       -0.50993866918731       -3.41213630925332
C           62.94072405260020       -0.69203247263955       -4.89126775480786
C           62.73125469940722        0.40865465353108       -5.72718571331231
C           62.50371269991550        1.77253600104747       -5.13178934860588
C           62.73474387051748        0.22928256837708       -7.10541108792391
C           62.94147653677551       -1.02874808661067       -7.66204579364944
C           62.96302294190772       -1.20608021878068       -9.15625120090198
C           63.14874716608331       -2.11657552830206       -6.82018851128882
C           63.15052033017020       -1.96072496116581       -5.43897585713288
C           63.37534803253126       -3.14238862227590       -4.53375254277501
C           61.73159483290706       -0.56763986153614       -2.73783546139221
C           60.47864953396792       -0.81117161362277       -3.38447179353152
C           59.52060971359559       -0.69590283237443       -2.43328002080871
C           60.19160054065780       -0.38342853981751       -1.21111542729910
N           61.54613012706696       -0.33174257665886       -1.39471819330937
H           58.44552738511155        0.57440438179510        2.49929168100665
H           60.35484916709240        0.81850615353666        4.39766254384258
H           64.20221765981287        2.88693657941113        3.89471499030546
H           63.36538225482493        3.92134850159023        5.06507061775697
H           62.45201344778194        3.08303026668471        3.79753833319543
H           63.24155775856922        2.95721269138286        7.20024598375166
H           63.98152778654505        0.91040048478843        9.48802132587470
H           62.32039142540329        0.31908595559870        9.60011111886657
H           62.63616890760397        2.05234130009979        9.39057269317214
H           62.64251621969074       -1.24950506416618        7.71274980876450
H           61.67696357822302       -1.97055689478000        4.48410233869118
H           63.42643714920497       -2.19135726669901        4.44210576637500
H           62.50683942829696       -2.69667230352613        5.87125305033885
H           65.52813535870351        0.18460144354704        4.47947636311058
H           67.43926235747801       -0.01540359338456        2.57787110595266
H           67.43009183756116       -0.00364809038059       -2.64010458717394
H           65.51892715267120       -0.26791819677100       -4.53360994214945
H           61.59302781677371        1.77500075045653       -4.52960851511339
H           62.40739450542344        2.52681027553827       -5.91215165777744
H           63.33521626364396        2.04607055864030       -4.47970948756431
H           62.57238655626777        1.08342859424286       -7.75466179156301
H           62.63497128048409       -2.20812007601813       -9.43359629211820
H           63.97908358572354       -1.06513457674458       -9.53233251168306
H           62.31713723400612       -0.47527764281028       -9.64355464293554
H           63.30995899778106       -3.10163340012496       -7.24575327488351
H           63.46925524285064       -4.06209289527379       -5.11031228861876
H           62.54386454434383       -3.24932271915215       -3.83479722774285
H           64.28657342594927       -3.00244459431991       -3.94891576508187
H           60.36379649339492       -1.03462798399786       -4.43275658021180
H           58.45262055555160       -0.80262055896239       -2.53468123106449
Ni          76.39471736817910        0.01195492223759       -0.02546291155707
C           72.96732513319515        0.00787017264243       -0.03215350068740
C           73.63579140085285        0.19629855117997        1.18070412917859
C           72.95568360779129        0.39116824604984        2.42189488213359
C           73.91128263383078        0.49255063402860        3.37687786597626
C           75.17168106230403        0.36113640944280        2.71266860457817
N           74.99149015621278        0.18911975530785        1.35867524754186
C           76.38786432963354        0.38726126784583        3.37591811452967
C           76.38358955011668        0.53768298991819        4.85876628909596
C           76.48673547557493        1.80795473605543        5.43257099790490
C           76.60491131949939        3.02350780777527        4.55229341849253
C           76.47735470370053        1.93439915777528        6.81690415431525
C           76.36629471760379        0.81590881677094        7.63610833660496
C           76.37603153879998        0.96149474659237        9.13387039653954
C           76.26601255037041       -0.44359895494153        7.05354021551424
C           76.27280111882494       -0.59403194144546        5.67201270878890
C           76.16070376797383       -1.95970427108636        5.04852881378337
C           77.60719676892656        0.28349663945185        2.72564697229913
C           78.86566627115417        0.32071566538926        3.40550112566733
C           79.82526110325648        0.23935524586073        2.45278375126399
N           77.79223616217791        0.16658954528692        1.36687676893018
C           79.14957955619086        0.14743994195388        1.19718979060937
C           79.82108687792680        0.05903604862625       -0.02401991891830
C           79.15327958926345       -0.05576956201827       -1.24512942533731
C           79.83251446100920       -0.14725404757281       -2.49886087156392
C           78.87697517120850       -0.28162702576387       -3.44964559290291
C           77.61737822931610       -0.27076554614138       -2.77098691980382
N           77.79735524299574       -0.12073676154018       -1.41484923325370
C           76.40201055198541       -0.41811393548686       -3.42037157112801
C           76.40582558356628       -0.61101703264267       -4.89830219068446
C           76.28817956888409        0.49396716192591       -5.74640216249704
C           76.15823205509265        1.87685961358148       -5.16589859774992
C           76.29146089821403        0.30113219193668       -7.12272387144987
C           76.40852051951450       -0.97435951695399       -7.66581415159998
C           76.42986910406290       -1.16613082471777       -9.15823093239662
C           76.52594990143524       -2.06599218891108       -6.81207909531468
C           76.52561926423564       -1.89701771826911       -5.43233589007113
C           76.65169976890742       -3.08330725891630       -4.51422523686669
C           75.18356029259316       -0.39062348527119       -2.76148101885964
C           73.92608748258824       -0.53693608033491       -3.42817099601982
C           72.96617016168940       -0.41015062296696       -2.48057307129525
C           73.64090095447636       -0.19134081571329       -1.24045622946145
N           74.99737242251804       -0.18947626506086       -1.41225314778236
H           71.88424654938322        0.43838591748236        2.53157083500786
H           73.79026527113142        0.64359382473535        4.43731261925643
H           77.51704101657407        2.97059210049158        3.95470837147750
H           76.63157586955910        3.93489553841069        5.14876735512793
H           75.75881800442728        3.07837453884546        3.86489665937733
H           76.55554358696763        2.92071318971259        7.26244779645182
H           77.39311754060046        0.83653012916607        9.51275695766562
H           75.74595636910651        0.20408305877826        9.60107063660322
H           76.02145000565881        1.94848032819044        9.43149561825260
H           76.17925207734801       -1.32159883370272        7.68524203470035
H           75.25278699030281       -2.02713755605649        4.44599070443478
H           77.01157740065581       -2.14807891063215        4.39135378345031
H           76.12983497931765       -2.73531130449458        5.81313833205798
H           78.98241971499039        0.40061053964519        4.47410614027981
H           80.89670620290666        0.23927610020146        2.57197859667393
H           80.90339935249285       -0.11345646976408       -2.61826348605590
H           78.99713688343783       -0.37979248980270       -4.51636378147009
H           75.24888983861774        1.95173970400000       -4.56640866241299
H           76.11864818020925        2.62769360909987       -5.95442568990982
H           77.00597909560291        2.09639547277856       -4.51436580412494
H           76.19965448176922        1.15836927432257       -7.78155509067477
H           76.07634953826492       -2.16150908000626       -9.42787170946143
H           77.45015740520815       -1.05439067104875       -9.53260871031777
H           75.80464791174320       -0.42291420409287       -9.65378920097989
H           76.61724666486691       -3.06452764315571       -7.22670163414484
H           76.69708759845628       -4.01194299774632       -5.08226204634648
H           75.79942227613935       -3.12919698704796       -3.83384081838899
H           77.55672576096954       -2.99914424462493       -3.90953208436424
H           73.80986167448266       -0.71179054954012       -4.48546887224780
H           71.89514767086554       -0.45772608496325       -2.59416012702907
