112
 energy: -200.054536507519 gnorm: 0.000460448884 xtb: 6.5.1 (b24c23e)
Ni          12.37469857294710       -0.05247829989354       -0.01122566893055
C            8.97959046296636       -0.07201448288559       -0.05772796304265
C            9.63317847419643       -1.28616117043024       -0.03660263990414
C            8.95405979145214       -2.54582323173592       -0.01960789056592
C            9.90743063476643       -3.49886236911175        0.09803925369563
C           11.16977155475458       -2.82023989538344        0.14230126883855
N           10.99178192881707       -1.46277542577335        0.04555698215156
C           12.38456104373962       -3.46175366917157        0.34256331811561
C           12.38879436486272       -4.93546012990019        0.50735964405254
C           12.75070937765548       -5.52560188940704        1.71712011576783
C           12.73533719913287       -6.90744172400160        1.82485106618386
N           12.39408605468236       -7.70829327325739        0.82059162558965
C           12.05071513981774       -7.15292378395156       -0.33697936536205
C           12.03002986369765       -5.78190922566332       -0.54027451318816
C           13.59548410648543       -2.78550309243981        0.39290062837007
C           14.85947690127562       -3.43638995082742        0.56095035103358
C           15.81017159251741       -2.47757641015779        0.45589911657628
N           13.77144351037492       -1.43406422173836        0.19689213749326
C           15.12609783219565       -1.24598820397430        0.22021912176775
C           15.79008031130905       -0.03841097834045       -0.00997903190647
C           15.11483987628850        1.16495354632273       -0.22982343808321
C           15.78654683670585        2.39899540400435       -0.48665703096786
C           14.82857090598583        3.35270745485859       -0.57125954672494
C           13.57367413077858        2.69794267827610       -0.35729690804066
N           13.75977926321889        1.34553320169684       -0.17971105290120
C           12.35554565063875        3.36280927040854       -0.31686888277185
C           12.34791760681658        4.83821315881443       -0.44984362495998
C           11.70315851304217        5.46433834859459       -1.51592674822523
C           11.72398852592542        6.84755774858550       -1.59972547495165
N           12.33061157701613        7.61834440733773       -0.70282840938830
C           12.94623790478834        7.02942801840650        0.31729440173631
C           12.98442325518624        5.65405206821557        0.48456786541997
C           11.14305575057953        2.70259595861985       -0.16644975869719
C            9.87521797055361        3.36803767259184       -0.09105139890209
C            8.92910025569773        2.40235774136584       -0.02952869411955
C            9.61993656470985        1.14935131580870       -0.05200234880869
N           10.97782405693883        1.34147876688638       -0.10688950801873
H            7.89590383194807       -0.07802581188456       -0.06903004583572
H            7.88371984458735       -2.66352333621929       -0.07780672813317
H            9.78025514690542       -4.56719978979679        0.16270505145673
H           13.02698525333451       -4.91079021642494        2.56538512241089
H           13.00849641571167       -7.39112802304156        2.75812368315411
H           11.77975937377200       -7.83366286203327       -1.13870363274506
H           11.75226806644532       -5.37311015139461       -1.50444015206490
H           14.99197619814185       -4.49362718165237        0.72243416936621
H           16.88139861043130       -2.58024520545392        0.51987438407267
H           16.85453315866355        2.50554799815261       -0.58724560975780
H           14.94996326265503        4.40537933103651       -0.76738175670926
H           11.20560528972294        4.87515815125953       -2.27701284404790
H           11.23191102831608        7.35780048889602       -2.42256473608285
H           13.43120373771390        7.68592106905417        1.03379694425760
H           13.48934973329191        5.21823886661635        1.33840138109126
H            9.74036469030437        4.43734407185530       -0.08265493066164
H            7.85759896491690        2.50834172105372        0.02964248359640
Ni          25.81113581199386        0.04778517601630       -0.02534085178362
C           29.20631142715558        0.05277948750710       -0.07509515324405
C           28.55273278024499        1.22079783669809       -0.40725525494786
C           29.23204880348929        2.43102459228631       -0.75671159367270
C           28.27874383834829        3.37699033760418       -0.92214500071288
C           27.01626782823265        2.74051169277274       -0.68332891550349
N           27.19410111221388        1.41358041663703       -0.38088577361547
C           25.80147932790691        3.41253347179259       -0.67927643697013
C           25.79744508453631        4.87050252547120       -0.94998658636414
C           25.43440637942263        5.78662915505107        0.03576507298126
C           25.45019531215841        7.14018574534284       -0.26248843151146
N           25.79289190092179        7.61479735852927       -1.45565577982132
C           26.13728160882805        6.74711140450336       -2.40161375851585
C           26.15763714663888        5.37615178072016       -2.19791009489398
C           24.59041353321165        2.78019177747946       -0.43504609471897
C           23.32641668920483        3.45174525844567       -0.46482305759702
C           22.37567945999758        2.50394689488139       -0.28605152017168
N           24.41441942164807        1.43033302554608       -0.22851914863805
C           23.05975676791530        1.25723251883273       -0.15171676574338
C           22.39569548261968        0.03513222127933       -0.01912846699381
C           23.07079907190139       -1.18009227565219        0.12162196164040
C           22.39884666964610       -2.43522640252009        0.23613104672541
C           23.35676163832159       -3.37251132947113        0.43181760756481
C           24.61190968042437       -2.68422004735917        0.44429041548486
N           24.42593125625756       -1.33860150410083        0.22081687811630
C           25.83012532448470       -3.30927029166754        0.67408544101764
C           25.83742203412954       -4.75960805440890        0.97574067198615
C           26.48077736714065       -5.66908324044719        0.13715650933769
C           26.45963090997661       -7.01686230768053        0.45935464038205
N           25.85392113944489       -7.49316438335784        1.54230102411136
C           25.23958213591660       -6.63268479941700        2.34767926743479
C           25.20190024734396       -5.26810188736853        2.10774851202024
C           27.04288341519720       -2.63441376183031        0.62448043433206
C           28.31081399343391       -3.24982340162379        0.88819184272817
C           29.25692646573058       -2.30773686996799        0.66728347207473
C           28.56601647545646       -1.11472312169506        0.28370433609386
N           27.20812080619061       -1.31440307178712        0.28726678970814
H           30.29000262395600        0.05544992959551       -0.08719235447463
H           30.30244678042188        2.52673144471301       -0.84589721004512
H           28.40603545751325        4.41790931002188       -1.17109489361600
H           25.15697167971776        5.44474043270664        1.02572411210394
H           25.17622031095221        7.87410273298099        0.48975535431253
H           26.40938234997160        7.16562911565551       -3.36617996100286
H           26.43625078437772        4.70492817866654       -3.00147416989379
H           23.19394457623346        4.51009215291086       -0.61890398134187
H           21.30442855519133        2.62075819049238       -0.25533920043044
H           21.33076025607421       -2.56616494386789        0.17215659326786
H           23.23514466979954       -4.43663477211516        0.55078483009440
H           26.97747783687918       -5.32704402011001       -0.76297695752455
H           26.95072503034785       -7.74461488362944       -0.17998225619656
H           24.75524417044906       -7.05214015886342        3.22461813357506
H           24.69809433354774       -4.60252958586536        2.79847785726210
H           28.44578877695019       -4.27104389441774        1.20530683636371
H           30.32847116452051       -2.39224390642024        0.75392142117734
C           18.41752206930598       -0.01076217019064       -0.02007584526434
C           17.19629641040411       -0.03049593804084       -0.01654732913971
C           19.76829148125821        0.00421067321270       -0.02500896766684
C           20.98947836512034        0.02583973283595       -0.02427203164394
