181
 energy: -328.806816599818 gnorm: 0.000528225614 xtb: 6.5.1 (b24c23e)
Ni          31.15358826099799       -0.03013729287815       -0.01246823181573
C           27.75723830056476       -0.05888829873308       -0.09365927575314
C           28.41266763109650       -1.27117928326017       -0.04922442884481
C           27.73263724243469       -2.52938862179163       -0.00938061806407
C           28.68874770543317       -3.48438634004208        0.06202886520707
C           29.95302793888566       -2.80843262086230        0.05222952581860
N           29.77307114400568       -1.44876332062584       -0.00914038215677
C           31.17556641182103       -3.46253322663660        0.12598674078920
C           31.18773453470553       -4.94490150443816        0.19438943631262
C           30.71062639932337       -5.70757960196822       -0.87136304159369
C           30.72673252584092       -7.09276782217619       -0.81317105578133
C           31.21771716638654       -7.73099992421998        0.32332914778784
O           31.24979209611844       -9.08503260250667        0.42312471934521
C           31.69350141118982       -6.97994914563269        1.39656192707479
C           31.68000119813190       -5.59810348244581        1.32644099821265
C           32.38897104358709       -2.78851329373873        0.13179455990478
C           33.65850518906279       -3.44977549622570        0.15376184638065
C           34.60481547459865       -2.48192605696885        0.11623972796200
N           32.55732734389834       -1.42318571385034        0.07215947944436
C           33.91218603039940       -1.23384064171442        0.06685393720997
C           34.57035078366593       -0.00327053089769        0.01870559211572
C           33.89335472531815        1.21723990622259       -0.02291171284702
C           34.56715078870296        2.47499435982661       -0.08384591181023
C           33.60648173716041        3.42863220314688       -0.12051859654496
C           32.34698940060410        2.74963907058482       -0.07320556812162
N           32.53568321261946        1.38649411832458       -0.02447541815839
C           31.12307234710109        3.40414803954802       -0.10348358377671
C           31.11176095002868        4.88706380724361       -0.14663993081877
C           31.63546034564592        5.63342727578511        0.91140315880876
C           31.62761431964315        7.01659141540563        0.87421177123096
C           31.09751376804355        7.67532504228106       -0.23366915695141
O           31.10969819869883        9.03329362912451       -0.23960610684775
C           30.57388855028057        6.94381666602163       -1.29704962927580
C           30.58028145034401        5.55830466512852       -1.24788899589148
C           29.90985250061954        2.72845649962389       -0.10366786179107
C           28.63507279986235        3.38453449332700       -0.10436437115510
C           27.69348242254838        2.41255357116021       -0.11030506638845
C           28.39307794625596        1.16459395578447       -0.10013926705470
N           29.75084207917150        1.36498008490384       -0.08714327554788
H           26.67362125418327       -0.06809092250371       -0.11358710275535
H           26.66053824911406       -2.64512950201556       -0.02479988655495
H           28.56228824572547       -4.55289711706273        0.12578903868289
H           30.33911538896055       -5.21152516697136       -1.76113628609852
H           30.36116188299620       -7.68159555034253       -1.64763180867281
H           30.89730555542052       -9.50529010624575       -0.37278030094571
H           32.06880074380332       -7.48973869520130        2.27525925606125
H           32.04114947337215       -5.01314047003490        2.16487877683214
H           33.79751431675450       -4.51807434801818        0.18162190440132
H           35.67767578051384       -2.58730936146657        0.11724712804982
H           35.63825670436839        2.59557923780933       -0.10222613576003
H           33.72983730703486        4.49719107914387       -0.18601539842208
H           32.03823013695983        5.12085013399586        1.77779535636090
H           32.02783527034109        7.59839848713574        1.69528896393652
H           30.71829573454963        9.38539882525725       -1.05027575217825
H           30.16555963452214        7.46066381654847       -2.15891465759100
H           30.18375017353987        4.98954554091660       -2.08160875493358
H           28.49215021082161        4.45280214332605       -0.09134748596540
H           26.61954797563820        2.51097489770654       -0.11255531325248
Ni          58.00859196553282        0.00835339652518        0.00155460401302
C           61.40184623877082        0.03107775461653       -0.05995409451029
C           60.74330671145228        1.22851322107692       -0.24590428914727
C           61.41779858711035        2.47424956631014       -0.44685862055521
C           60.46080947672734        3.43009897209986       -0.49389293517252
C           59.20070192914265        2.76587535694316       -0.33116741466077
N           59.38412935792417        1.41244253874531       -0.19236001015436
C           57.98461353452586        3.43080149762572       -0.24123767260911
C           57.97348654729083        4.91085593642539       -0.35093778980070
C           58.34967535425537        5.53312096838814       -1.54108145752983
C           58.33584549756805        6.91507417385951       -1.65211310179986
C           57.94837845592598        7.69182085310246       -0.56282785627939
O           57.92261005026771        9.04815841579818       -0.62738253824485
C           57.57393395205131        7.08191583984432        0.63299500307509
C           57.58501274748420        5.70172118670278        0.73242008510862
C           56.77842369584077        2.76827562419256       -0.05843762763469
C           55.51200187058636        3.43231434936107        0.00956500288869
C           54.56637433203782        2.46596203171473        0.08927356598197
N           56.60834732969747        1.40234428854427       -0.01152136900453
C           55.25541647973946        1.21539754264988        0.06133550310810
C           54.59553604816811       -0.01591513328831        0.03238790210673
C           55.27415368229711       -1.23686387037881        0.00279034053496
C           54.60620739459605       -2.49793125575021       -0.04962131290470
C           55.56745051853607       -3.44972781882807        0.02193462740170
C           56.82041462913090       -2.76544837060494        0.12582048367192
N           56.62973025635143       -1.40256417200655        0.07877548566435
C           58.03958165491570       -3.41193900601478        0.27984414550384
C           58.04866537549654       -4.88897599151866        0.40953960754020
C           57.39972001802292       -5.51000039233630        1.47949369528586
C           57.40737810294677       -6.88734937850549        1.60961802810020
C           58.06298809390029       -7.66767803658326        0.65896766552640
O           58.04813821933475       -9.01653065455997        0.81492830068242
C           58.71041957114107       -7.06251913590054       -0.41567855941559
C           58.70375723399597       -5.68118251884661       -0.53350245438851
C           59.24933092991792       -2.73012100937779        0.31377821568518
C           60.51999294801117       -3.36712536520107        0.50015655926990
C           61.46266028000525       -2.40178523637722        0.39119199473488
C           60.76682111286967       -1.17426469161397        0.15484629335827
N           59.40974300255628       -1.37833793253293        0.13635222725941
H           62.48555197522634        0.03958002255758       -0.07343632040871
H           62.48777097678115        2.58405912742644       -0.52519725587424
H           60.58526513981229        4.49425908528475       -0.61166667881192
H           58.64021442327399        4.92854673464033       -2.39306237397341
H           58.62314658246371        7.39404864739430       -2.58202361445484
H           58.19952322112888        9.36444401932389       -1.49779896936100
H           57.27850698627132        7.69871352198179        1.47271543085768
H           57.30405947781157        5.22728719302318        1.66598688920248
H           55.37271509006030        4.50059636373623       -0.01754346283737
H           53.49542378892613        2.57399513997211        0.14929150902808
H           53.53844705395306       -2.62251015093944       -0.13064766100876
H           55.44919938756262       -4.52068299388888       -0.00087350907229
H           56.89901419265900       -4.90208647398811        2.22472253521707
H           56.91115717276766       -7.37132370152874        2.44171244473781
H           58.53079678301131       -9.45872308628366        0.10369704333411
H           59.21518788348354       -7.67419783928112       -1.15577825018714
H           59.19742822741674       -5.21189517214891       -1.37722983985582
H           60.65955737730378       -4.41826159582884        0.69378925833352
H           62.53475262589674       -2.49203513943084        0.46548267149959
C           37.19872472977023        0.01292352235545       -0.00168327301373
C           35.97778182395611        0.00700973874642        0.01117292487366
C           38.55018181803109        0.01859906262297       -0.01184197564010
C           39.77124529229570        0.01889427545713       -0.02546237232412
C           50.61816117728284       -0.04138812032549        0.01713214670928
C           49.39664009590646       -0.04240070666445        0.00739398988571
C           51.96840686138817       -0.03714828663592        0.02431008985457
C           53.18985073216612       -0.02680422806669        0.02921895294001
Ni          44.58506939417967        0.00625169453726       -0.04009113190481
C           41.17737554694472        0.02012476114880       -0.03527156518262
C           41.85543913266773        0.96784453466802        0.73631797535829
C           41.19907885155655        1.91583662067009        1.57827783494944
C           42.15893272157172        2.75194882532447        2.04458615151853
C           43.39814679293831        2.31755806792489        1.47592514496684
N           43.20535817740593        1.18829852567734        0.71314038449729
C           44.60154591418751        2.99927594823173        1.61198236528247
C           44.61130228861122        4.29265615144196        2.33340552308693
C           45.41091979875338        4.46705662847623        3.46618853764790
C           45.42071814286341        5.67024504305958        4.14854723251397
C           44.63029324649546        6.72659413790761        3.69886356160297
O           44.66677901715448        7.89441610921866        4.38997812792925
C           43.83105853194721        6.56901059739664        2.56882049418593
C           43.82180797001588        5.35701992601418        1.89622060986879
C           45.79804449637665        2.50869676521498        1.10311909416041
C           47.04543639747095        3.20679631766538        1.16790570731319
C           47.99668253832738        2.35221640211168        0.71750872218254
N           45.97733763763758        1.25736065864653        0.55820548978041
C           47.32661299918654        1.14149167332822        0.36672861147987
C           47.99213747603815       -0.03000873457749       -0.00763186207715
C           47.30956161134758       -1.18425030980937       -0.40353873360016
C           47.96045660179088       -2.40476533353158       -0.75631767412225
C           47.00180181080555       -3.22927562127457       -1.24571104936718
C           45.76884748896194       -2.50466793406241       -1.19793749904228
N           45.96284312022938       -1.26688029073569       -0.62824768937667
C           44.57163244686914       -2.96309446637285       -1.73506365404550
C           44.56998545531957       -4.24249625062749       -2.48081261385998
C           43.75201868190679       -5.29954343447082       -2.07910723537925
C           43.74981855640813       -6.49804950725654       -2.77538075723739
C           44.56724460515661       -6.64989733638269       -3.89318001310686
O           44.59283662619329       -7.80469942028494       -4.60661516068171
C           45.38769383035104       -5.60161819545292       -4.30643370021536
C           45.38832480848696       -4.41167190075637       -3.60101213566790
C           43.37686473848865       -2.26703816338339       -1.59500352954603
C           42.13307508524274       -2.67925362613308       -2.17038942786199
C           41.17976208668781       -1.85008841105828       -1.67876408525231
C           41.84555899504822       -0.92365169146953       -0.82060616516571
N           43.19409899611293       -1.15194413623676       -0.80870880580423
H           40.13933816333009        1.92906487265124        1.77595501585879
H           42.04701165709317        3.58661780044682        2.71722210046198
H           46.01552767677806        3.64134826013937        3.82435931283099
H           46.03363671252322        5.80544173897313        5.03110379142211
H           44.08180454911204        8.55594255969854        3.99681379387994
H           43.22099104309734        7.39515362025629        2.21961977085701
H           43.20931502594247        5.24049457218183        1.00904901486885
H           47.16847612143462        4.22089733852132        1.51149251153864
H           49.05896278858086        2.51270245243516        0.62763145374907
H           49.01635298407412       -2.59079065617879       -0.64308802306119
H           47.11047829039943       -4.24002977958873       -1.60375505129938
H           43.12614220607395       -5.18866117791930       -1.20059929926711
H           43.11696367657891       -7.31837261301957       -2.45402562794557
H           43.98673477675756       -8.46086557650880       -4.23710928591059
H           46.01529949811559       -5.73226347272978       -5.17933133071104
H           46.01634205260949       -3.59181027968497       -3.93133312564661
H           42.01322017662225       -3.49615883041330       -2.86315607678957
H           40.11911548682367       -1.85264586186956       -1.87204707493782
