144
 energy: -221.545819936199 gnorm: 0.000376651457 xtb: 6.5.1 (b24c23e)
C           10.31152515595311        0.12891724220349        0.01137130048337
C           10.91698838726162        1.32660958195148        0.36964318490116
C           10.26177497280223        2.53163140387836        0.74954200459863
C           11.22145207585748        3.46833394643584        1.01276250974347
C           12.49412047983755        2.86861323904412        0.79262042180188
N           12.25949559463380        1.57635473881091        0.41596934649932
C           13.75511360055338        3.45652982887827        0.94120272874912
C           14.97220498121220        2.80137123235315        0.74210075047455
C           16.26722589919466        3.45009449812780        0.84223158508267
C           17.19125632293130        2.50098011155972        0.58601272129757
N           15.13142538941537        1.48958645796942        0.41248336624822
C           16.45941378475194        1.27733029064582        0.32167761684968
C           17.10033687186852        0.05706265828362        0.02478045430450
C           16.46776502183555       -1.16385773974723       -0.27865514796417
C           17.11545749656780       -2.39892422407967       -0.54559509761072
C           16.15143042547295       -3.33358540380766       -0.80453683889614
C           14.88424461756181       -2.69410988591328       -0.71275247492453
C           13.62487239426908       -3.27393305291401       -0.89850684111966
C           13.60084050914476       -4.70544683910577       -1.28684308384952
C           12.98014983819241       -5.64709071321324       -0.46669969131952
C           12.96460547127644       -6.99172343657698       -0.82070516418965
C           12.28324525945521       -8.00295291726741        0.06127910633807
C           13.57112714777641       -7.39190054732270       -2.00783239146612
C           14.19336030304700       -6.46446321510724       -2.83799493708818
C           14.82941017812284       -6.90533568691021       -4.12866980948663
C           14.20583462642776       -5.12285382416139       -2.47189983105902
C           12.40664796853009       -2.60404000746464       -0.74533472613751
C           11.10525365424437       -3.20463412413049       -0.99322466393346
C           10.18825270185150       -2.25061908539014       -0.73427335974040
C           10.92843996502137       -1.06496108742437       -0.33963141899033
N           12.26095514763581       -1.31192864126057       -0.36643387707954
N           15.12753246865160       -1.38655541660246       -0.38314310048888
C           13.78322924318916        4.88590337792157        1.34061495238679
C           14.37987123046905        5.26660115118433        2.54115657588177
C           14.40689946481631        6.60383223665341        2.92486377359233
C           15.06463483873568        7.00273357161716        4.21829327148409
C           13.83658441197314        7.56266117697238        2.09424208570646
C           13.23745639668351        7.19852194471994        0.89129770842378
C           12.64443131956854        8.24913382044709       -0.00838376073031
C           13.21161086533441        5.85875806403811        0.52077510085424
H            9.22612261715176        0.13623783671581        0.00693497479339
H            9.19199682103298        2.65119269726416        0.81478211290040
H           11.06795898910648        4.48448684851885        1.33824138909586
H           12.98699284085973        0.90101566992809        0.20647085846417
H           16.42520077998354        4.49297339392366        1.06473343765414
H           18.26520299518747        2.59546102082714        0.56398937844532
H           18.18345458052545       -2.54542353001351       -0.53261965128573
H           16.30135069934866       -4.37688081939289       -1.02948926154596
H           12.52627714383361       -5.32589854323020        0.46438587604960
H           11.25666739017274       -8.15892827733485       -0.27816732505077
H           12.80115615395771       -8.96170628560091        0.02360003433389
H           12.25087102039610       -7.65898483400916        1.09513514176499
H           13.56208014678115       -8.44043419416775       -2.28739771902631
H           15.63884199706202       -6.23266002479296       -4.41284968015164
H           15.22537387840449       -7.91729123476713       -4.04009357555892
H           14.08631557403025       -6.90066283356287       -4.92938354429591
H           14.67568309902748       -4.38935966650922       -3.11811888368978
H           10.94144109057945       -4.21524481906909       -1.33136563104263
H            9.11322429385180       -2.31038228402593       -0.80287112712877
H           14.40355656848152       -0.69166635612132       -0.23278672063040
H           14.80946109925378        4.50870635255165        3.18704733148890
H           14.84081050257611        6.28015001839405        5.00381182114177
H           14.72870314037109        7.98865669827899        4.53946092881661
H           16.14879403193114        7.03548439026434        4.08903902564744
H           13.85595001256978        8.60727954925023        2.38758415236940
H           12.21082901282607        9.06047631617180        0.57693816363673
H           13.42258675887445        8.67165313546479       -0.64823333806371
H           11.87187950826291        7.82307960767727       -0.64865151361221
H           12.75988603583698        5.56503889247499       -0.42053112542630
C           33.06625082660599       -0.11755898272473       -0.05631625537520
C           32.46046086772012       -1.32981112463978       -0.36105838838953
C           33.11499073179508       -2.55895694036486       -0.65530007021839
C           32.15458429735648       -3.49951532048537       -0.90156287844838
C           30.88213445952686       -2.87307680531946       -0.77436982876475
N           31.11765171476540       -1.56919564800997       -0.44088520660253
C           29.62088596368447       -3.45786122570494       -0.93147724901697
C           28.40363391939839       -2.79572705377798       -0.75983329706043
C           27.10833004029506       -3.41186140310226       -0.98434895184771
C           26.18388947902370       -2.46402283507221       -0.72504209533919
N           28.24397201257132       -1.49519644528884       -0.38817721071202
C           26.91573382776399       -1.26925445651742       -0.35103474545722
C           26.27443607651569       -0.06319417401918       -0.00122023006706
C           26.90709366333391        1.14670394626561        0.34310751822400
C           26.26000137989797        2.35212960281716        0.72325874546678
C           27.22481388896248        3.28945627393871        0.96933856172396
C           28.49192830040040        2.68611676376491        0.73797669962601
C           29.75166242948020        3.27719381230325        0.87866898995348
C           29.77588907832530        4.70952195349953        1.26562271962750
C           30.37097964739435        5.10476792404363        2.46304902868379
C           30.38514211104100        6.44418586521268        2.83648126877246
C           31.03628727312728        6.86804551930766        4.12533167703904
C           29.80522994871258        7.39229014916420        1.99858605062878
C           29.20982786762679        7.01423462364867        0.79896722712296
C           28.60413822964436        8.05029733810759       -0.10905230019585
C           29.19634095791266        5.67101775351776        0.43866541515560
C           30.97008869143466        2.61955460951177        0.68199524516921
C           32.27159549973639        3.26079609718734        0.78477667757839
C           33.18908085814722        2.30745626777086        0.52513066499607
C           32.44909637110306        1.08752847126460        0.25358659182841
N           31.11628387886287        1.31457309193419        0.35030653134370
N           28.24772224356791        1.38911813125260        0.36964989915668
C           29.59290032378711       -4.89310183959907       -1.31058491775505
C           29.02245590671124       -5.83313288228955       -0.45458008502265
C           28.99663032603883       -7.18070197024947       -0.80047335494799
C           28.36918374604744       -8.18447760349823        0.12875781475361
C           29.54001111031768       -7.58259935321696       -2.01609063342407
C           30.11201796968274       -6.65523174015931       -2.88294629032480
C           30.67467472202784       -7.10093149393085       -4.20568865798843
C           30.13862336196238       -5.31241475582276       -2.52358210001760
H           34.15163431391005       -0.12138752250448       -0.06468942409680
H           34.18485855621198       -2.69387558318319       -0.66776742342706
H           32.30710961843501       -4.53894104121670       -1.14328561991983
H           30.39067402500081       -0.88220117751303       -0.27130759244589
H           26.95057360230963       -4.42768324595430       -1.30882047973379
H           25.10959924466633       -2.53823443712196       -0.78098052774604
H           25.19182348896301        2.47502815343235        0.80171914010025
H           27.07586878444512        4.30694024565327        1.29203790894210
H           30.80566217616734        4.35491547626831        3.11487457656799
H           32.06965572490093        7.16856340676634        3.93760098709020
H           30.51146140979595        7.71736238320025        4.56361958592566
H           31.04571596587752        6.04896270028868        4.84453202473546
H           29.81401483392499        8.43862639333399        2.28627617471513
H           27.80673238325512        7.61865828239759       -0.71424534944610
H           28.19951643168729        8.88252842045694        0.46745309508596
H           29.36771848330785        8.44442409260483       -0.78359903462019
H           28.74570913732801        5.36603098702088       -0.49957672936397
H           32.43487450512611        4.30183029311749        1.01309067925931
H           34.26438103312289        2.39246484239441        0.50363995408618
H           28.97119733491427        0.71034559658744        0.15645729558204
H           28.61254047614706       -5.50947432234081        0.49587163789677
H           28.61788034252352       -7.95774469840446        1.16607395466711
H           28.70664137472298       -9.19480527889327       -0.10233267891458
H           27.28188634921429       -8.15500940842085        0.02834849952286
H           29.52079076952578       -8.63193014367853       -2.29212094264172
H           31.11576688076181       -8.09474711025640       -4.12409800256870
H           29.87774490136713       -7.14447553178524       -4.95167630417558
H           31.43479322160925       -6.40474818990912       -4.56044245395639
H           30.57060267402668       -4.57924705017239       -3.19607891376936
C           22.30151473309514       -0.01828150681291        0.01982400345305
C           21.07318856384916        0.00024008508799        0.02663631530805
C           19.72941799217864        0.01914027670792        0.03003939012851
C           18.50547275885856        0.04203184124906        0.02763753789855
C           23.64528396202418       -0.03547383513433        0.01443849247922
C           24.86931467851375       -0.05198898465519        0.00774376358724
