256
 energy: -465.488620409624 gnorm: 0.000960917420 xtb: 6.5.1 (b24c23e)
Fe          44.24056886337446        0.00545231072457       -0.00879471035585
C           40.84858797270662        0.04508196568325       -0.04452926947220
C           41.50499637046563        1.25655743432736        0.01618111443360
C           40.82918717410903        2.51737349322504        0.07786553686634
C           41.78738082862715        3.46468732398994        0.20459205214087
C           43.04851596548487        2.78066544200889        0.21008585881690
N           42.86239125352978        1.43061589139070        0.08668020465068
C           44.27206746031873        3.41477749882845        0.39647270820984
C           44.28523960334334        4.88615485106347        0.57491328692835
C           44.69597877523230        5.44658845576971        1.78765268070596
C           44.70674615383690        6.81833862618084        1.95276288387138
C           44.31258558015289        7.65990200945700        0.90735121876257
C           44.33643295497887        9.12067785459841        1.10731814153303
O           44.68230843161911        9.64997119735947        2.13223003912079
C           43.90442384519285        7.10010100224286       -0.30559040085491
C           43.88833881805503        5.72612260924502       -0.46856492720618
C           45.48115309355962        2.73549919197467        0.42157561402386
C           46.75251612249934        3.37922515123097        0.57357386644675
C           47.69505254933642        2.41367305268901        0.45990137370280
N           45.64994955650494        1.38559788858233        0.22205525622940
C           46.99810009755841        1.18617221856011        0.23336021623255
C           47.65288851193698       -0.03107862886314        0.00965144620001
C           46.97338084411527       -1.23530227919168       -0.20978462496799
C           47.64415984200286       -2.47250148196225       -0.46090305409190
C           46.68251905476658       -3.42004276718659       -0.56726928220000
C           45.42680403281754       -2.75765763269427       -0.37203112178204
N           45.62200179538660       -1.41046295840133       -0.18007178514095
C           44.20188327915941       -3.40911751322330       -0.37492902667355
C           44.18491888500680       -4.88139291159176       -0.53651821015739
C           43.56433501746386       -5.46156983395371       -1.64611445625939
C           43.55163995114153       -6.83623526138565       -1.80229644473177
C           44.15452154089451       -7.65837444703143       -0.84736033491196
C           44.15263851680172       -9.12617079812590       -0.98922777044444
O           44.65792011950743       -9.87569087102367       -0.19355779138530
C           44.77259866175176       -7.07777734676540        0.26503017817978
C           44.79050261401270       -5.70469953820230        0.41732716308708
C           42.98899235796993       -2.74203063033747       -0.23875339660800
C           41.71457321817558       -3.39990456667614       -0.20195256501750
C           40.77577423916939       -2.42877058961104       -0.11568832354725
C           41.47799978987597       -1.18134113048036       -0.08691666831893
N           42.83200666394040       -1.38654810878409       -0.13779468466030
H           39.76450308274761        0.05739998627479       -0.05173249444463
H           39.75851221082584        2.63989213215764        0.03936976810919
H           41.66359976234875        4.53116135782494        0.29991253434929
H           44.99232599221106        4.79569836150972        2.60237076342729
H           45.01890069779760        7.26218784229358        2.89200260688099
H           44.00824215211842        9.70728205534868        0.22283924177790
H           43.60050451204106        7.74619137611215       -1.12276252713596
H           43.58163293354682        5.29386792531593       -1.41431999994433
H           46.89564450896141        4.43565858660593        0.73127197364237
H           48.76745146936845        2.50957549179052        0.51318002743548
H           48.71299695798668       -2.58485643228863       -0.54481382973737
H           46.80199025235719       -4.47211552474316       -0.76797770385060
H           43.10594248248698       -4.82491305508563       -2.39441932831306
H           43.07315673756276       -7.27846121897160       -2.67009033115436
H           43.63973875648313       -9.49514383427516       -1.90295653486632
H           45.23522866267454       -7.72438892997586        1.00292330020317
H           45.26098864161077       -5.25750445759200        1.28563106981732
H           41.57034175167532       -4.46765791716059       -0.23185539750582
H           39.70294213480670       -2.52784818121812       -0.07043023664738
Fe          92.20654642983584       -0.04195946646276       -0.04217746364777
C           95.60125967501365       -0.07527220461334       -0.07546225317504
C           94.94636040238652       -1.28705732666968       -0.14141854478034
C           95.62501385005305       -2.54636758813190       -0.20198543913035
C           94.66702924234882       -3.50201985679728       -0.22050155136696
C           93.40367526530670       -2.82309507919281       -0.18367937304771
N           93.58811627941355       -1.46819199374926       -0.12894187043150
C           92.17590486671712       -3.47517758722823       -0.16466320507062
C           92.16164758957059       -4.95659194826482       -0.20626700444377
C           91.67274745795143       -5.68648133264654        0.88098956047510
C           91.66179505586993       -7.06754967498611        0.84466993004756
C           92.13345564933812       -7.74929349723968       -0.28196832370608
C           92.10756036304768       -9.22348300193512       -0.29778580683512
O           91.69757405756057       -9.89517459480090        0.61383300855757
C           92.61915558134140       -7.02017344254840       -1.36996461475494
C           92.63574601098267       -5.63711233057183       -1.33057211422072
C           90.96268462397042       -2.80506084395657       -0.10877472009326
C           89.69023516247913       -3.46336997970341       -0.14231740302448
C           88.74743916040565       -2.49200466797303       -0.11173649307503
N           90.79484811397970       -1.44125799959384       -0.06640096913235
C           89.44568048807980       -1.24538306727933       -0.06502781506498
C           88.79139576379441       -0.00868728300348       -0.02450834825256
C           89.47050176006421        1.21427715736640        0.01981863884826
C           88.79719357920081        2.47522203092922        0.03896571229616
C           89.75887531656078        3.42756024829994        0.07816537823498
C           91.01780330218445        2.74298657202127        0.09287313300328
N           90.82322286955356        1.38287824282457        0.04336306433640
C           92.24486633092970        3.38930233673740        0.12707108140114
C           92.26221130235237        4.86940777843401        0.19321097564028
C           92.81106822999419        5.61432300391402       -0.85396265713408
C           92.82392288433793        6.99673726583130       -0.79825535193704
C           92.29272743100482        7.66107157721029        0.30977995218779
C           92.29573936884246        9.13327895004520        0.39419156454229
O           91.84940522562512        9.75072472218013        1.32676518932378
C           91.74682009826896        6.91513657639379        1.35957396300033
C           91.72918542682281        5.53482642967214        1.30096330580651
C           93.45974548184748        2.71336963750737        0.09737757870894
C           94.73641204601407        3.36416972108736        0.16861400454493
C           95.67508373637951        2.39131512937810        0.10682513566681
C           94.97111264534938        1.14833192650148        0.00978853914267
N           93.61658155536152        1.35632494980269        0.01757661549010
H           96.68536783710272       -0.08580089139972       -0.08257746285180
H           96.69689778660225       -2.66323628942389       -0.21805959115057
H           94.79175812291196       -4.57230741913994       -0.24678643075241
H           91.31565434085176       -5.15990161166707        1.75874849907646
H           91.28964516112801       -7.64229780916034        1.68595629519096
H           92.49976747752831       -9.67636970458605       -1.23329275360872
H           92.98335029932215       -7.54151922372673       -2.24924681198520
H           93.00322377467603       -5.07294871764801       -2.18030433911234
H           89.54757609554994       -4.53024824430261       -0.19567504469942
H           87.67437392851905       -2.59414213584910       -0.12434360470887
H           87.72657891579257        2.59922347123439        0.01736853546095
H           89.63711733477955        4.49829345358570        0.08558616960444
H           93.21348711013809        5.10106449015044       -1.72001874272397
H           93.24650962689492        7.56808468574797       -1.61836582014837
H           92.74800802530778        9.63932513494473       -0.48531020883964
H           91.33984273651338        7.43972784630242        2.21735420881899
H           91.31523332688680        4.95844716665788        2.12053643066104
H           94.88230948014403        4.42785341807841        0.26371153207920
H           96.74904832367363        2.48558476914009        0.13040962843696
C           52.85015447136982       -0.06490894626631        0.00500284927999
C           51.61954477612153       -0.06059961774415        0.00207743401324
C           50.27904385229425       -0.05329113522530        0.00363548742957
C           49.05322605027343       -0.04439692555263        0.00486917142025
C           54.19038629012665       -0.06616215389179        0.00622845486826
C           55.41654557390495       -0.06467281072073        0.00974367956249
C           68.83167678109473       -0.01175672683860       -0.03834715056262
C           67.60064957091323       -0.01900795998577       -0.03452645559067
C           66.26086318211276       -0.02591103895848       -0.02763546438796
C           65.03444556540562       -0.03427072499181       -0.01942321727089
C           70.17151139158216       -0.00556395616351       -0.03927440929950
C           71.39796683002105       -0.00311740675520       -0.03635876348599
C           84.82309100668915        0.01588597791258       -0.02516790379207
C           83.59285183071400        0.01477293617961       -0.02030746262360
C           82.25182280352720        0.01593323010326       -0.01890360782707
C           81.02582659999433        0.01258945984371       -0.01297304046790
C           86.16438832795144        0.01008905182777       -0.02558809634732
C           87.39003319304244        0.00455146416103       -0.02756933117971
Fe          60.22564749305548       -0.05530662139761        0.01196924821695
C           56.81532517071856       -0.06276270748687        0.01219280537222
C           57.48545009405249        1.15828423993248        0.16874147171244
C           56.81573951887171        2.41467274913094        0.28833601632211
C           57.76836040041893        3.33556644497557        0.57553169441193
C           59.01447812390852        2.63272443864667        0.63868712631381
N           58.82969057242160        1.30613321568978        0.33735965220044
C           60.21829187408364        3.20913016432447        1.02794753695043
C           60.21410819690388        4.62121269567432        1.47127507579611
C           60.97288218801232        5.57850488388193        0.79096664541691
C           60.96780463813839        6.89593098107965        1.20683192643177
C           60.20953392021708        7.28499315952142        2.31588225933405
C           60.22742830197756        8.69666905749724        2.74364819154042
O           60.86700704339727        9.55385691984004        2.19068106230007
C           59.45209568010100        6.32918042294335        2.99685191381960
C           59.45195311454258        5.01115464279326        2.57599453694358
C           61.42578242735125        2.52157142342265        1.01623337693845
C           62.67206222329625        3.07428009090317        1.45548775227607
C           63.62973050542934        2.16313560457554        1.15533353910735
N           61.61655796284158        1.25956518387517        0.50862013769690
C           62.96278117363192        1.05475083904629        0.54823716852136
C           63.63605207536352       -0.04160135153589       -0.00843092762625
C           62.96478239275433       -1.14630182778736       -0.55059711505521
C           63.63323714723411       -2.25388690103450       -1.15748332130767
C           62.68010084233052       -3.17736930932762       -1.43361140119123
C           61.43492830299729       -2.63138507894620       -0.98316985599541
N           61.62128172107514       -1.36380915925373       -0.48853036120269
C           60.23187147234905       -3.32692958142484       -0.98053225857487
C           60.23343712271975       -4.74179414008395       -1.41530426993479
C           60.99680743400435       -5.69032588889926       -0.72923982274716
C           60.99809488838631       -7.01349820214302       -1.13370713717851
C           60.24125573603448       -7.41229652465178       -2.23782862969487
C           60.22906822559457       -8.81551989357711       -2.69301845107788
O           59.59469835087853       -9.20501993786878       -3.63924525503959
C           59.47984882947271       -6.46238871364297       -2.92645079892640
C           59.47273770064471       -5.14269856449503       -2.51778575208549
C           59.02603878478813       -2.75377864445694       -0.59338785046243
C           57.78232252201612       -3.46098066144439       -0.52910306146610
C           56.82518563269780       -2.54150101011488       -0.25305799709601
C           57.48996652266982       -1.28193983811464       -0.13890267045588
N           58.83537064335967       -1.42585331023027       -0.30097807606371
H           55.75404022788000        2.55836780108215        0.16895650475446
H           57.64740921876274        4.39566960035382        0.72747801812033
H           61.55215591040862        5.28166166602707       -0.07597020206511
H           61.54927996230393        7.64607178343802        0.68169079330875
H           59.59539879563440        8.91241238108704        3.63120842945380
H           58.86317759938192        6.62217782570237        3.85988615954957
H           58.87297547187551        4.26865965791413        3.11348706644028
H           62.78997760020115        4.03344086763584        1.93252742734226
H           64.69292707108946        2.22325228221706        1.32295617856480
H           64.69435603956236       -2.30539714042645       -1.34048044871062
H           62.79997254301997       -4.14022826277207       -1.90270941787969
H           61.57618378787353       -5.38499470515630        0.13475747699955
H           61.58851016112496       -7.74492953916913       -0.59157811041084
H           60.86086215895894       -9.49762742754794       -2.08527377864924
H           58.89815306313804       -6.78089162075701       -3.78480841237745
H           58.89105031867375       -4.40603388111709       -3.06020654311246
H           57.66577293981025       -4.52244147320537       -0.67465807040194
H           55.76349154903922       -2.68811740083390       -0.13735283475402
Fe          76.21121983121112       -0.00164805451589       -0.00469793261111
C           72.79660219837702       -0.00225427738661       -0.02833481270160
C           73.46681827077455        1.21184047878566        0.17386042463306
C           72.79413453189198        2.46286865816038        0.33010499161633
C           73.74683707151679        3.38005821098107        0.62669405444480
C           74.99612762117333        2.68018192671500        0.65936002559733
N           74.81177952087265        1.35841962720549        0.33498915210863
C           76.20290083803945        3.25871015677555        1.03246483544052
C           76.19688048206073        4.66786948634742        1.48662031018572
C           76.92207834373470        5.63971231090787        0.79089997280904
C           76.90975799321210        6.95453893597239        1.21514449129521
C           76.17835277454769        7.32581869911925        2.34802972910088
C           76.18458213511708        8.73577435816588        2.78204162183497
O           76.79037854167630        9.60688371824077        2.21323255305234
C           75.45635622345846        6.35477504000179        3.04565635057904
C           75.46296865723986        5.03949941337029        2.61639805439929
C           77.41448310534044        2.57859583273287        0.99686402297081
C           78.66282516027405        3.14100978931336        1.41701359547888
C           79.62091488375827        2.23083672975937        1.11596157605145
N           77.60450592312631        1.31465893733299        0.49497400136826
C           78.95224825336850        1.11368009326802        0.52737139675808
C           79.62598860582702        0.00806194159117       -0.00803186369245
C           78.95694164988952       -1.10529988727819       -0.53319580005784
C           79.63072951267149       -2.22598008491213       -1.10905963420563
C           78.67812541376927       -3.14889729521854       -1.38829637109424
C           77.42764277860918       -2.58817409558845       -0.97275829640819
N           77.61088768386891       -1.31616470015336       -0.48995362179143
C           76.21877953882030       -3.27361478973898       -1.00469949677769
C           76.22347921401224       -4.69080106565526       -1.43338539874906
C           76.94256801176542       -5.64402840510586       -0.70733646409961
C           76.94342972053570       -6.97018317495827       -1.10188609544710
C           76.23079762379891       -7.36716216344749       -2.23570916657845
C           76.21717643805789       -8.77392842161616       -2.67928675953533
O           75.61675277392514       -9.16311016235817       -3.64764233413051
C           75.51533123566541       -6.41208447356576       -2.96526553569037
C           75.50862473394052       -5.08923135944744       -2.56685230061935
C           75.00633982061890       -2.69169910080603       -0.65734179253245
C           73.75596383825632       -3.39032350492947       -0.64157289839444
C           72.79851108337789       -2.46907383461010       -0.37478001149443
C           73.46939925718739       -1.21725835101124       -0.21657669462465
N           74.81693713023701       -1.36628527090225       -0.35001738095858
H           71.73083694333425        2.60566002148463        0.22469932757678
H           73.62444706613373        4.43618643011416        0.80302510121284
H           77.48020864748189        5.35648951075834       -0.09426097804501
H           77.46422055153832        7.71642517615442        0.67784739787054
H           75.57707706615037        8.93596823637740        3.69016589039851
H           74.88892313120949        6.63384165569214        3.92749449345590
H           74.91061250609138        4.28517524408371        3.16531458812240
H           78.78152272745928        4.10538221144178        1.88315887631258
H           80.68546557890124        2.29629690168379        1.27246300203938
H           80.69482189030612       -2.28588570360349       -1.27087124019442
H           78.80142408437226       -4.12001499809751       -1.83909591723979
H           77.48730256999609       -5.33970503201479        0.17924613930890
H           77.49845711124644       -7.70548063715320       -0.52850973444217
H           76.80996243873118       -9.46016236793238       -2.03780080862601
H           74.96856028960190       -6.72916618255444       -3.84679103173674
H           74.96244514376235       -4.34870469490314       -3.14004591913689
H           73.63568979797574       -4.44786271173890       -0.81059378756048
H           71.73305805306242       -2.60968696750790       -0.29042982207239
