250
 energy: -459.004194837964 gnorm: 0.000901161561 xtb: 6.5.1 (b24c23e)
Cu          48.00927502861890        0.00571911551690       -0.01455077008189
C           44.60435105132240        0.06041500757198       -0.10697698825317
C           45.24391677773636        1.28030172051746        0.05231640815988
C           44.57278915422001        2.53840692691277        0.21419717323340
C           45.53431103050942        3.48266263510084        0.36292770409572
C           46.80285162140823        2.81024646036870        0.28292962844380
N           46.59532004627785        1.47340592022621        0.10107040908710
C           48.04928024233973        3.42805911793794        0.40776463715097
C           48.06847413021779        4.89887070670605        0.59734772105759
C           48.58462127042022        5.45300264747450        1.77254914747825
C           48.60169821946589        6.82308886434092        1.94899926226010
C           48.10948783420309        7.67117438920862        0.95138341105262
C           48.14447042843421        9.13001728405725        1.16109210547176
O           48.57445818030973        9.65270839455221        2.15740237552226
C           47.59551951951737        7.11861935616796       -0.22420423478659
C           47.57233142015026        5.74603895801523       -0.39709281112329
C           49.28017907137654        2.77005284996363        0.36722602315645
C           50.55980538663023        3.41651247480690        0.44058031477306
C           51.50239764731139        2.44574078263019        0.33756768573133
N           49.46349621292962        1.42175641180611        0.21099163944365
C           50.80664048977682        1.20216963010249        0.19466807792199
C           51.43817936332893       -0.04494508626333        0.04596207779195
C           50.77515853805023       -1.27431503692594       -0.11177464099688
C           51.43907694568349       -2.53220874082125       -0.27795826095734
C           50.47216459105660       -3.47680266762852       -0.39777638579333
C           49.20922910035583       -2.80124264749495       -0.29995573519019
N           49.42671808489870       -1.45908437272045       -0.13459868724618
C           47.96171123100278       -3.42136369331295       -0.39714687169974
C           47.94270040785608       -4.89670338481488       -0.54468220511132
C           47.40249979859161       -5.48735847203968       -1.69026340237252
C           47.38543333471249       -6.86403071789533       -1.82770822068435
C           47.90337604147535       -7.67857111206853       -0.81792723552809
C           47.89345411587514       -9.14796084732686       -0.93758939857959
O           48.32292981775641       -9.89092618500256       -0.09253708520384
C           48.44184895073698       -7.08780951445391        0.33005241774582
C           48.46419041400417       -5.71302271036623        0.46364347060229
C           46.73110031388423       -2.76089241236702       -0.36358671186234
C           45.44533509226983       -3.40190211436725       -0.42572688757082
C           44.50864541021472       -2.42455983502667       -0.35065794836760
C           45.21222758190639       -1.17971104739811       -0.22997215570637
N           46.55822522777459       -1.41285494758950       -0.23640161220305
H           43.51951145253457        0.07632770045855       -0.12324173465289
H           43.50190661454031        2.66681797841081        0.21955633924384
H           45.40355020676270        4.54043573701196        0.52529264601997
H           48.95761710078004        4.79743011079391        2.55134869556099
H           48.99480325193222        7.26093373118419        2.86025945013763
H           47.73623558743209        9.72224633183660        0.31443291463562
H           47.21513427151802        7.76963360696176       -1.00465033897601
H           47.18359207639610        5.32015395904456       -1.31526608143110
H           50.71340796036121        4.47846772410345        0.54336270521416
H           52.57515478276419        2.55321101972670        0.35044400028033
H           52.50878501615252       -2.66501066487086       -0.30341011049132
H           50.59874503113802       -4.53586938414157       -0.55343492547510
H           47.01071094976076       -4.85738679835037       -2.48096229610124
H           46.96965569446799       -7.31400068766207       -2.72341792422428
H           47.45023447818487       -9.52538151453805       -1.88375159898820
H           48.83849378952588       -7.72821648457055        1.11055058177060
H           48.87170416860191       -5.25819187543605        1.35945633515147
H           45.28643220320789       -4.46534401788637       -0.50387133168445
H           43.43478643124163       -2.52401007607382       -0.36577855371928
Cu          88.42556981179067       -0.04126063992904       -0.05171342023821
C           91.83132417744268       -0.08383339869332       -0.09433873021563
C           91.19166289493153       -1.31373099715258       -0.12104054890583
C           91.86269650634780       -2.58219273724672       -0.12448291056643
C           90.90088498182004       -3.53777180346928       -0.13075315154563
C           89.63240587349301       -2.86054570487901       -0.14334770829496
N           89.84004671747293       -1.51147128152692       -0.12830333038167
C           88.38495967427741       -3.48909799564070       -0.14030938538293
C           88.36437802547015       -4.97168159735020       -0.15886193002364
C           87.80843799860521       -5.68181196035819        0.90961212520682
C           87.79059066342721       -7.06304463018983        0.89568731592535
C           88.32283117855219       -7.76665295996573       -0.18994814267641
C           88.28725641858644       -9.24036014992077       -0.18312430436943
O           87.81919390704211       -9.89438355363100        0.71341095784186
C           88.87644486565041       -7.05829649400685       -1.25912970981289
C           88.89928025840349       -5.67496954280404       -1.24155077124240
C           87.15366721309607       -2.83052944791446       -0.11706426306294
C           85.87433996836072       -3.47917472460576       -0.17554500772290
C           84.93191264680134       -2.50306317401411       -0.15040521931646
N           86.97066192126373       -1.47410210760281       -0.07080925319898
C           85.62760304325928       -1.25324325204649       -0.08226013581023
C           84.99640379365214        0.00195256058685       -0.03481755529252
C           85.65940897534324        1.24021639089287        0.01655744832549
C           84.99560819959974        2.50888585540022        0.04105673033473
C           85.96249605737846        3.46046106197954        0.07412222162540
C           87.22538328883185        2.77758305352243        0.07685597847256
N           87.00784139579291        1.42599874526841        0.03397935107244
C           88.47315365224136        3.40482565822708        0.08262866914876
C           88.49343307620400        4.88572344967065        0.15481642163874
C           89.04680075379211        5.63772009378204       -0.88512655679795
C           89.06785788725522        7.01948577773387       -0.81706527672396
C           88.54041296858108        7.67733866846120        0.29668730347655
C           88.55606183540311        9.14817816965509        0.39673097750633
O           88.11948628114790        9.75935828366596        1.33813553225966
C           87.98778461306230        6.92500125512626        1.33849829306617
C           87.96186785670891        5.54561950943650        1.26701989036038
C           89.70407672321751        2.74599567490022        0.02955902327059
C           90.98975386315868        3.38859235434500        0.07708816819335
C           91.92672174789760        2.41025775196837        0.02150741316033
C           91.22333868839044        1.16144668111790       -0.04868761825391
N           89.87721137649274        1.39382663151627       -0.03955277294048
H           92.91632429742197       -0.09775384051899       -0.09424313432232
H           92.93357745727441       -2.71032085215697       -0.11439562288673
H           91.03154481007999       -4.60782580462307       -0.11587903590702
H           87.40510096129928       -5.13911576765602        1.75708636394255
H           87.36643758084770       -7.62142481246015        1.72326966086492
H           88.73264882269476       -9.71127367135832       -1.08515864159928
H           89.28792889901493       -7.59633661061124       -2.10697013036751
H           89.31829224202657       -5.12772592527120       -2.07849621447023
H           85.72101384208965       -4.54406806543487       -0.24180646537157
H           83.85942328189047       -2.61007699118917       -0.17964995142303
H           83.92600375846830        2.64417544903237        0.02780452630114
H           85.83591798917470        4.53087230323347        0.08096227128372
H           89.44627542049582        5.13044486489580       -1.75615769418747
H           89.49460704203310        7.59567296365584       -1.63165373637384
H           89.01074018971021        9.65983233907966       -0.47830477721232
H           87.58347541874510        7.44416469081528        2.20083748485367
H           87.54410300860272        4.96468954395295        2.08152034308008
H           91.14841422547792        4.45194398247082        0.15665928122587
H           93.00054608108361        2.51031023719596        0.03509227194536
C           54.06659482491128       -0.07094221784354        0.04808396943032
C           52.84475644284210       -0.06124903099053        0.04817022821227
C           55.41660892109516       -0.07570392004479        0.04635416756358
C           56.63850674166422       -0.07591421091172        0.04415201249792
C           67.54217183635230       -0.03334330207817       -0.01329046353068
C           66.32007764968623       -0.03512430510630       -0.00905641430271
C           68.89165071325030       -0.02477193736119       -0.01361042946275
C           70.11386416240333       -0.01807673124201       -0.01358710444122
C           81.01782167294938        0.02509824121323       -0.04452722319832
C           79.79598484121564        0.02294479834754       -0.04465612066132
C           82.36798123931435        0.02198397393565       -0.04559365950923
C           83.58970236455720        0.01757835719712       -0.04514897968042
Cu          61.47944098731219       -0.05618560549726        0.01727047858484
C           58.04444515814572       -0.07158375306416        0.03902751699197
C           58.68968954292370        1.13336104415599        0.37003336020281
C           58.00858656445701        2.35818329658563        0.66388443808255
C           58.96183232032465        3.28134510463982        0.94931146197228
C           60.23200030848952        2.62202583200836        0.83942429875269
N           60.03366896050179        1.31687940471212        0.47588565176658
C           61.47136506661907        3.23046310882674        1.05179080164856
C           61.46848365042139        4.64398415198848        1.49822440020400
C           62.07040754557213        5.63465003247512        0.71619025068236
C           62.06769048559302        6.95138015045289        1.13398432138309
C           61.46731086308973        7.30803848843311        2.34606249046785
C           61.48240131220515        8.71930826777893        2.77230708937690
O           61.99306556347973        9.60491665220322        2.13561517417317
C           60.86637404371057        6.31930613839397        3.12885954870817
C           60.86517579489963        5.00163775759888        2.70729518663089
C           62.71399144692649        2.61647921547137        0.87760695847927
C           63.98115543299679        3.22627415610470        1.16499652101321
C           64.93888412681930        2.31092973208972        0.86969137580826
N           62.91856100059965        1.33910808452014        0.42874262986712
C           64.26351089548123        1.13493297809408        0.41012728764477
C           64.91455052690847       -0.04084836542810       -0.00416400747775
C           64.26857123487943       -1.22208539014876       -0.41109492460158
C           64.94829988941143       -2.39153575365086       -0.88061922412582
C           63.99491588084067       -3.31548002588277       -1.16343612029200
C           62.72641580220912       -2.71768408070328       -0.85779598334173
N           62.92547631387722       -1.43863185572491       -0.41104784450150
C           61.48739312685843       -3.34376627907996       -1.01321258068746
C           61.49006935964761       -4.75774120000350       -1.45828255576633
C           62.10827279664401       -5.74169773143244       -0.68160560675842
C           62.10747410168595       -7.06273535127102       -1.09264427468572
C           61.49232027398246       -7.42583333480857       -2.29316272893096
C           61.47761711904618       -8.82617779812672       -2.75433653651341
O           60.95748673215490       -9.18753092229827       -3.77878765806771
C           60.87678678130656       -6.44091598259901       -3.07272667547924
C           60.87335811660984       -5.12288123615795       -2.65894486512897
C           60.24543586857553       -2.74669882526673       -0.78449636332125
C           58.97988566299892       -3.41775062415637       -0.87744365733116
C           58.02206036115044       -2.50248653989619       -0.58240565241928
C           58.69583052549843       -1.27143545170108       -0.29784492538969
N           60.04007024659763       -1.44306557813666       -0.41975759848189
H           56.93842677486984        2.48820883011181        0.64401873624961
H           58.82088475189985        4.32089997084819        1.19713041146082
H           62.52553219120432        5.36322310294173       -0.22963782987912
H           62.52813761401733        7.72634128690853        0.53064337759611
H           60.97855585697970        8.90749414955224        3.74430394571323
H           60.40118581488679        6.58685451276151        4.07203950757641
H           60.40976598819809        4.23440255871173        3.32332369733746
H           64.11739252767497        4.22120832683915        1.55662866077082
H           66.00863655308325        2.41149593015559        0.95962365990758
H           66.01753325938897       -2.48173403060592       -0.98613815851386
H           64.13461752944117       -4.30857073855433       -1.55858210922016
H           62.57522809042448       -5.46494307601193        0.25697935943032
H           62.58430768912822       -7.82100333816181       -0.48010735734187
H           61.99179619100902       -9.53639524119122       -2.07220745210130
H           60.40515345809419       -6.73136955890359       -4.00537688780029
H           60.40610126679581       -4.35982856359163       -3.27118422939858
H           58.84512688378134       -4.45878330646639       -1.12222091253929
H           56.95337562817362       -2.64164989140898       -0.54941061728147
Cu          74.95484130120585        0.00006144426317       -0.02041777274489
C           71.51945072262325       -0.01348132613530       -0.01279627405575
C           72.16406628930299        1.18684647884683        0.33593470070326
C           71.48184901594429        2.40699592846505        0.64595465475971
C           72.43446314809805        3.32853733677446        0.93863083880756
C           73.70536863867608        2.67291593114483        0.81625203024014
N           73.50802042313225        1.37094747078532        0.44078872931656
C           74.94443833607747        3.28382622875103        1.02326305347471
C           74.93920823831333        4.69417815018667        1.48048517335970
C           75.52332642614608        5.69543338003740        0.69863803539527
C           75.51673943280551        7.00865482223458        1.12759529611415
C           74.93059538934668        7.35078660489422        2.35070537351937
C           74.94051980715530        8.75882233729456        2.78819584597265
O           75.43237475064804        9.65392783799682        2.15016724902282
C           74.34796606068522        6.35124930316378        3.13356954446334
C           74.35029744654575        5.03720244149194        2.70080462254973
C           76.18768314447911        2.67542808576732        0.83525994230582
C           77.45525450751585        3.29083891245633        1.10932427336694
C           78.41354406822343        2.37783833076456        0.80903439139278
N           76.39292866683836        1.39785429471912        0.38740669274921
C           77.73838709580087        1.19749909388337        0.36024375298095
C           78.38980040808129        0.01778904482412       -0.04115158704380
C           77.74533209213024       -1.16953432731140       -0.43169105823514
C           78.42665644123446       -2.34608512863496       -0.88093438760130
C           77.47395217369363       -3.27195363437887       -1.15942966893487
C           76.20402325458687       -2.66787119612884       -0.87219147937394
N           76.40180417607915       -1.38449600818703       -0.43809822045641
C           74.96525571631379       -3.29197316421933       -1.03754871826203
C           74.97017320733508       -4.71035440221991       -1.46886176108447
C           75.57171067222104       -5.68772036927382       -0.67096666870828
C           75.57287940301779       -7.01331074758598       -1.06690901896962
C           74.97657693510129       -7.38766567492258       -2.27349535040803
C           74.96505802746546       -8.79302507100815       -2.71878531684868
O           74.46285635499308       -9.16469653340926       -3.74849565574943
C           74.37803984123069       -6.40935739638621       -3.07438056684474
C           74.37244581945589       -5.08664466573652       -2.67555009524030
C           73.72213776224451       -2.69013855788933       -0.82908743609417
C           72.45573907125544       -3.35666189074339       -0.93987241757372
C           71.49724770498469       -2.43885176425243       -0.65488195602521
C           72.17147773080227       -1.21093212871332       -0.35816654492878
N           73.51622473684165       -1.38616501015309       -0.46528415956055
H           70.41135369825750        2.53502700391998        0.63102571771035
H           72.29273631429545        4.36503300498078        1.19849853190182
H           75.96728413378069        5.43526479485461       -0.25559858478226
H           75.96305312105432        7.79210345452466        0.52456620805223
H           74.45097431933361        8.93469981877649        3.76978098132288
H           73.89404401908808        6.60754800167345        4.08533332407921
H           73.90868287519874        4.26145928434896        3.31626055474939
H           77.59128108238035        4.28776264954439        1.49591385509618
H           79.48364460538751        2.48237732159291        0.88977638499871
H           79.49649471427865       -2.43935132809154       -0.97717407613396
H           77.61498829062482       -4.27029647867987       -1.54066724659248
H           76.02412985131660       -5.40185162436271        0.27197023144294
H           76.03653260916428       -7.76626406072989       -0.43789106204232
H           75.46422605885024       -9.49689211776881       -2.01917925246722
H           73.92101644848746       -6.70866223386755       -4.01147874330233
H           73.91831462138215       -4.32910595829158       -3.30425232379649
H           72.32039404647902       -4.39660142963887       -1.18894640443377
H           70.42778618092497       -2.57455612610810       -0.63580055621367
