444
 energy: -690.349161482234 gnorm: 0.000770781757 xtb: 6.5.1 (b24c23e)
C           95.00880084456436        0.08196594601384        0.12214229700936
C           95.63399024754321       -0.06209412004329        1.35431324091590
C           95.00301523463072       -0.15223581896812        2.62594465830685
C           95.97804478301580       -0.32687567005107        3.56842009288154
C           97.23505854227224       -0.36222455409757        2.90115159900436
N           96.97797125299297       -0.17904076764605        1.57161132183069
C           98.50187187244163       -0.55851766709850        3.46480993667209
C           98.55428309903944       -0.80266042490142        4.92333446515388
C           99.30731108981844        0.02451172112937        5.75922055056123
C           99.34343519621923       -0.17851048487965        7.12643751735818
C           98.62767068652255       -1.22989608855245        7.71872647140044
N           98.70129199900994       -1.46746007138178        9.08899365126261
C           99.12705144611539       -0.35452527775377        9.93891204806673
C           97.65202669496868       -2.29738374105137        9.68235044530927
C           97.89238648714563       -2.07536041666093        6.87452251309716
C           97.85282243842688       -1.85796761917621        5.50912939916732
C           99.70466900538307       -0.53484381145405        2.75180811705482
C          100.99197281745303       -0.86534743296626        3.33299031242094
C          101.90707032062693       -0.69427830961240        2.35550842806999
N           99.85652630339023       -0.20570989333053        1.43916137334588
C          101.17949050637414       -0.26387354418889        1.17966995633465
C          101.81420325130199        0.06709310935619       -0.03632821133932
C          101.15890114031514        0.36700737103506       -1.24691683325855
C          101.77357611898225        0.74241133330663       -2.46882476304074
C          100.79329688951798        0.87848551285349       -3.41324107538609
C           99.54641331126396        0.59014011135959       -2.79505949466189
N           99.81655755203680        0.30620485826317       -1.48227600490883
C           98.28162188461724        0.60352037993970       -3.39774415094189
C           98.24559151698718        0.81682107118671       -4.86082510737698
C           97.51444245723260        1.86323219161754       -5.42649198818669
C           97.48434447598622        2.05953562049897       -6.79512836135647
C           98.18447532693376        1.20712245612346       -7.66238595124720
N           98.10872640730287        1.36243844610625       -9.04317516112337
C           99.15427403982069        0.72976215826682       -9.84841299040778
C           97.66851892839234        2.66163476862438       -9.55211226044929
C           98.90786678167844        0.14816793979347       -7.09298889856093
C           98.94144171791575       -0.03375346454045       -5.72289818724913
C           97.07244283240094        0.43022698213791       -2.71472589377373
C           95.76629514692375        0.39558780070510       -3.35349492786310
C           94.85918177056072        0.26647180788335       -2.36364665052155
C           95.61106951140914        0.20006203235154       -1.12380827830353
N           96.94065708433052        0.28502814071950       -1.37471042685329
H           93.92373064295073        0.09604673700657        0.14463370564081
H           93.93876645669577       -0.08495067074859        2.78704146209016
H           95.84259733469366       -0.41414141981885        4.63430253540229
H           97.69060994076806       -0.13542660851640        0.85097457976214
H           99.85531247511057        0.85738804263887        5.33203061071599
H           99.93990707943573        0.49544667676109        7.72776790113297
H           98.50527681052920        0.53354180198625        9.77981085667260
H           99.05453964682908       -0.65905255011042       10.98241813266870
H          100.16898535149252       -0.11096004902577        9.72891639926741
H           96.65407450766179       -1.89944221131639        9.46699342097054
H           97.72852652174475       -3.31465080646830        9.29731022848417
H           97.79771937785895       -2.33253943835487       10.76145974182071
H           97.34469712627822       -2.91941079740341        7.27357404142154
H           97.28476368853117       -2.53644618162040        4.88162167977138
H          101.15142728888527       -1.20585181413095        4.34334976773558
H          102.97033962670473       -0.86412042970115        2.39741005231231
H          102.83103271548750        0.89887885477536       -2.60103423178909
H          100.91990481508957        1.17096155975423       -4.44283976207757
H           99.11025721330005        0.08963471412749       -0.78694006384417
H           96.98017232519733        2.55184224097255       -4.78088408089042
H           96.90471740557707        2.88881527497166       -7.17970978695744
H           99.01473201749457        1.00935273298305      -10.89204725082059
H          100.15390790538312        1.03928678088030       -9.52391071078847
H           99.06806205455521       -0.35481852314520       -9.77405018691382
H           96.62887556512919        2.83147878605804       -9.27027766366570
H           97.72713348173026        2.65293859833387      -10.63995882554956
H           98.28982829165726        3.47704596488359       -9.16534327939800
H           99.44822963850017       -0.55333222696964       -7.71550580283347
H           99.49911116758933       -0.86921952112611       -5.31324599717422
H           95.59044055636579        0.44826166934487       -4.41593251410101
H           93.78441782956619        0.20494229890887       -2.43619143927400
C          156.32828673764124       -0.03318040428712       -0.05693588157138
C          155.73527291036962        0.15888427078169       -1.29831353482296
C          156.40243041816501        0.35707519329828       -2.53891046962779
C          155.45106516098318        0.51423482670360       -3.50798164841765
C          154.17215998701920        0.40654076602888       -2.89195565365741
N          154.39465367842672        0.19781505101514       -1.56005205831479
C          152.91739878037947        0.52802770607698       -3.50111084098073
C          152.91137686550914        0.74462629582341       -4.96696419257707
C          152.34286264230349        1.89099141125757       -5.52407491665245
C          152.34530641283934        2.10078703047564       -6.89126697650806
C          152.91551887206913        1.16210843985045       -7.76404539551877
N          152.86806463819619        1.33721430763012       -9.14484910275288
C          152.61989931704335        2.69010203407344       -9.64361180206536
C          153.82522421618441        0.57544210432986       -9.94872893031094
C          153.47314833202580        0.00367685314378       -7.20254932679724
C          153.47595230182307       -0.19271845478490       -5.83337352290719
C          151.69183894663976        0.46170443087338       -2.83268102984895
C          150.40607238630747        0.55379818066924       -3.49852935661646
C          149.46827093160113        0.44078815865782       -2.53505944390283
N          151.51153863422903        0.27780605987892       -1.49471759866790
C          150.17872183143476        0.26135164098119       -1.28546837695454
C          149.51766116518780        0.09154510413816       -0.05081598100145
C          150.14031267481980       -0.10521152757800        1.19780081352962
C          149.48523735258951       -0.26382290835439        2.44633428806588
C          150.44189025767622       -0.41123952628742        3.41231868240635
C          151.71417266837915       -0.36519136872056        2.77991070444561
N          151.48011762770756       -0.17564927609520        1.44271159835065
C          152.96795464666408       -0.46075066571385        3.39559381757184
C          152.97797103564602       -0.65230316118697        4.86390471994213
C          153.59674869421718        0.27780107429239        5.70096809356781
C          153.59575600500204        0.11892015863580        7.07477576202765
C          152.97663139375987       -0.98933532989207        7.67181484399052
N          153.01770004001270       -1.18401299545492        9.05005194193845
C          152.01542890774388       -2.08092771225631        9.62783652565907
C          153.32345272166509       -0.02142099937228        9.88424331519064
C          152.37452651646882       -1.93404761765367        6.82716115263346
C          152.37055921607819       -1.76141450881938        5.45485283084609
C          154.19509873784537       -0.38407694715687        2.72768227855466
C          155.48729712805812       -0.55235087268658        3.37370645471600
C          156.41820630903916       -0.43105708542332        2.40548683756623
C          155.69550667520170       -0.20037505433576        1.16781818845068
N          154.35957137898399       -0.18341573224551        1.39866878853849
H          157.41349940975769       -0.05365935326300       -0.05343296588691
H          157.47376966932649        0.38272070151426       -2.66005119114260
H          155.61621721820518        0.69991776799690       -4.55695526156742
H          153.66196596820660        0.09919366194193       -0.86533620017907
H          151.91069607944357        2.64312875823498       -4.87296710525942
H          151.89425048296624        3.00923125862837       -7.26910877728236
H          153.35982249922452        3.40273816647757       -9.26222525088080
H          152.66347656360472        2.67784291630590      -10.73220447064723
H          151.62035260370232        3.01073880881639       -9.34875999209677
H          154.85424812329850        0.73849063572094       -9.60968183283063
H          153.58818726924079       -0.48747004452992       -9.89131073542572
H          153.73861512348606        0.88554813815170      -10.98949211321624
H          153.90585606976151       -0.76464757548810       -7.83035624780254
H          153.90439397245149       -1.10392090810010       -5.42968472798045
H          150.25906573831421        0.67437033783223       -4.55956140092941
H          148.39624456416800        0.47105926377033       -2.63885609684151
H          148.41691207883881       -0.26290696055983        2.58346070828237
H          150.28093073598421       -0.53219606809098        4.47105106659921
H          152.20848365464059       -0.08650897591404        0.74189490425288
H          154.06610170307843        1.15506140380367        5.26896865988395
H          154.08540399230364        0.87373048052765        7.67640339024081
H          152.10319233141411       -2.05680668431647       10.71343846754599
H          150.99984270845519       -1.78484182513059        9.34265260037483
H          152.20253945632160       -3.10257226883898        9.29553850186110
H          154.34149731704446        0.31403086156820        9.68447655285367
H          153.26332914759499       -0.31373981286440       10.93207133502348
H          152.62437381384640        0.80205981331646        9.70007833532907
H          151.90666711511204       -2.82210090387710        7.23234022834297
H          151.90695705601584       -2.51509796386940        4.82737893308320
H          155.63730689148855       -0.75280621433992        4.42243720515942
H          157.49195186800029       -0.49692287112194        2.48842815201127
C          103.22246917950764        0.10037002795928       -0.05281437521737
C          104.44041749851878        0.13920106971544       -0.06014027709048
C          114.15720851163871        0.23245626263335       -0.00221105350925
C          115.37606850838607        0.23296519149492       -0.00063509156996
C          125.06553591895219        0.18889503417426        0.02271008246482
C          126.28440825945854        0.19116791336330        0.01735128190729
C          135.97336244570846        0.22425042556276        0.04051278079074
C          137.19220145046125        0.23464917865366        0.03289980899070
C          146.89066052160936        0.14553777378429       -0.03763644581406
C          148.10887853314614        0.11785906454678       -0.04980786457937
C          105.84816774916499        0.17446089479957       -0.05393960604651
C          106.47265153205866        0.21127898837796        1.20898840818656
C          105.82646542958332        0.20953396082746        2.47060705096861
C          106.79063015554391        0.26006840247491        3.44022894636389
C          108.05629570203368        0.31349597301744        2.79744766610272
N          107.81382214404005        0.27285573096063        1.44968458712775
C          109.31230633364554        0.38983803078491        3.41409362635924
C          109.31833964719688        0.43583925135606        4.89495830465634
C          108.67171774801119        1.45537189184838        5.59526454527668
C          108.66832898312040        1.48362815835725        6.97813972134339
C          109.30209045404891        0.47719876053533        7.72230628722556
N          109.33062445233215        0.52571660004032        9.11405208427230
C          108.28994898038340        1.31535793661176        9.77479212704255
C          109.67587044331242       -0.70790417038426        9.82126147438473
C          109.96404073185504       -0.53808527541836        7.01608686100665
C          109.97215260829505       -0.55218914182041        5.63327602346134
C          110.54259166343097        0.41680029744683        2.75408892451110
C          111.81185392712871        0.60672450922054        3.43122777723289
C          112.76412496244541        0.56896392973741        2.47553537397594
N          110.74349379749709        0.29138074531085        1.41293423654643
C          112.07666818305407        0.35893782164855        1.21876146738269
C          112.75112322384396        0.23342817155349       -0.01350363511597
C          112.12674194707085        0.11140582647728       -1.27123825849489
C          112.77020871646847       -0.06461526224649       -2.52155288002793
C          111.80544348744742       -0.09615775288516       -3.49208227279113
C          110.54306453968459        0.06094106725688       -2.86022770741678
N          110.78653498514942        0.16716924362690       -1.51692422312714
C          109.28799792486203        0.08044987174896       -3.48404063798709
C          109.29718913872664        0.04612350142377       -4.96534282395179
C          109.93575256865917        1.05094033007286       -5.69452367437502
C          109.94646225245808        1.03754598295043       -7.07719097243434
C          109.32918483735457        0.00066053501547       -7.79269452164103
N          109.29568797098703        0.01048306392044       -9.18495475649967
C          108.99762291703803       -1.25431051324609       -9.85791282469435
C          110.29740863878277        0.82593159196555       -9.87323919430857
C          108.68668648799799       -1.00702121757587       -7.05781357369577
C          108.67040767676195       -0.97916880896129       -5.67487969345307
C          108.05546549106042        0.13325243659160       -2.83068243964622
C          106.78018751253047        0.18280227108589       -3.52116771292207
C          105.82839041308695        0.19215058214186       -2.56481903429247
C          106.52085169210069        0.17209982289331       -1.29350813478134
N          107.85638180470983        0.14467599579214       -1.48278134520124
H          104.75976911762552        0.17596013721492        2.61521875917101
H          106.63699994250364        0.25335017993744        4.50686047284997
H          108.53238674848004        0.27578368120123        0.73348881626629
H          108.18197129581860        2.25345879156757        5.04768819809708
H          108.16881901976744        2.30735659562197        7.47174301994774
H          108.37258348212308        1.17834115502427       10.85239725261581
H          108.43774977778575        2.37329797492574        9.55559498823071
H          107.28866551463904        1.01190984747907        9.44955861400161
H          110.70763044134326       -0.98064977135694        9.59767188535867
H          109.01093434032616       -1.53277668118659        9.54158163289265
H          109.59715736844107       -0.53338755309702       10.89382311790381
H          110.48176784136709       -1.33249709680632        7.53794747288565
H          110.47609333635501       -1.36007578729657        5.11381562141375
H          111.93575366839062        0.76981285992280        4.48959264624559
H          113.82951938037208        0.68906060943935        2.58563709132415
H          113.83410601355331       -0.16694444076984       -2.65634751484469
H          111.95415215029972       -0.23293329493557       -4.55073673520842
H          110.06985100582391        0.26673826031857       -0.80590390870592
H          110.41344324518940        1.87064837588035       -5.16855909406199
H          110.43840538022330        1.85247708345037       -7.59236256458960
H          109.68898775266315       -2.04673229589408       -9.55014018201088
H          107.97445452168721       -1.55650937053019       -9.63248527180953
H          109.07773826272305       -1.10849948753760      -10.93463551347034
H          111.31432490633480        0.56023135053814       -9.56368064670437
H          110.19935701294938        0.67345925942053      -10.94751406212868
H          110.11778308668751        1.88082901922700       -9.66357913231143
H          108.18789979188442       -1.82717812140859       -7.55794751242611
H          108.18105934964734       -1.78187374858715       -5.13397535936740
H          106.64916792935414        0.21732306338689       -4.59052001126214
H          104.75811940266992        0.21683508315340       -2.68640066394522
C          116.78189218052603        0.22685495645841        0.00720873444872
C          117.41039886747463        0.06036548225087        1.25814101548389
C          116.77573672105370       -0.18365850639712        2.50137860240958
C          117.74222753935385       -0.21062292420435        3.47110191448695
C          118.99595110204800        0.02354169469275        2.84648194353018
N          118.74781017085198        0.15515336933607        1.50612349605773
C          120.24829527636795        0.13017983910930        3.46834968591960
C          120.25959195982240        0.08648431828506        4.94669733946272
C          119.50183379748921        0.98347093039470        5.70269553819793
C          119.51041991644493        0.94266740280124        7.08475865370261
C          120.26943322187728       -0.01532875588820        7.77385752343360
N          120.31238557087981       -0.03014000674799        9.16562520368386
C          119.20477101738655        0.61210150459881        9.87525102936175
C          120.79912026377664       -1.25079801113955        9.80937810882294
C          121.03716717811497       -0.90985292001914        7.01305495398034
C          121.03217200099598       -0.85398022684354        5.63148645627489
C          121.46837618590818        0.27204073566532        2.80260747331351
C          122.73317084720341        0.50768584076274        3.47313159798153
C          123.67866890070155        0.52745897806597        2.50949979226649
N          121.66243963734478        0.19044962541007        1.45701054395214
C          122.99083543183421        0.30807857225145        1.25475186381128
C          123.66012228040084        0.19016002966625        0.01862213234692
C          123.02980391543007        0.07081174354909       -1.23693001645326
C          123.66268235592578       -0.13931805580591       -2.48718552026512
C          122.69608350839026       -0.12648945278552       -3.45720514636688
C          121.44465978558326        0.10048648904250       -2.82540331092231
N          121.69357452516462        0.18595659159322       -1.48147992842459
C          120.19382829014346        0.24435930861370       -3.44284499489665
C          120.18090582599787        0.24913222163612       -4.92157748674113
C          120.95534553001571        1.15528270663724       -5.64930750153712
C          120.94506197253966        1.15925777602917       -7.03188922170235
C          120.16651083384536        0.23937162002148       -7.75059799382517
N          120.12196615695997        0.27139197299131       -9.14173518162471
C          119.60291874889658       -0.91349044026574       -9.82548567940433
C          121.24296448002363        0.91114804870957       -9.83220753316927
C          119.38211805477565       -0.66428888447498       -7.01804645155005
C          119.38961027937918       -0.65348848259284       -5.63543693617839
C          118.97629093808553        0.38243036503861       -2.77157678207028
C          117.71573647505777        0.66301128031685       -3.43257876488799
C          116.77029863368610        0.66125875822685       -2.46870979874337
C          117.45391016837696        0.38408871140054       -1.22321063186665
N          118.78059797473125        0.25489788697340       -1.42976956662646
H          115.71678537374231       -0.33282363577643        2.63211669951926
H          117.59920059860367       -0.39179211597908        4.52386725814093
H          119.46122240015976        0.29684891086087        0.79910084450404
H          118.91471548756441        1.74409110639989        5.19925811303520
H          118.92122840145444        1.67495865171918        7.62162387261009
H          119.32391660257414        0.44161274831561       10.94464204019420
H          119.23125009693682        1.68785615080584        9.69887526711094
H          118.23655087211922        0.21315389745029        9.55319499588736
H          121.85135484627773       -1.39867487517405        9.56485339819313
H          120.22383741798171       -2.12874201514670        9.49487762321583
H          120.71583211579774       -1.13707687976099       10.88972920482701
H          121.65016034642393       -1.66273690828185        7.49151900771207
H          121.62055982265042       -1.57146392275622        5.06983747929600
H          122.85861950906097        0.66118929922212        4.53279328054346
H          124.73878459528608        0.69203227528544        2.61372150006926
H          124.72033285574970       -0.29410130728903       -2.62241869921631
H          122.83767075644795       -0.27598136629298       -4.51511403340561
H          120.98153800069163        0.31295251548767       -0.77027702592294
H          121.55708017734621        1.88808977696060       -5.12242971595897
H          121.54806828206671        1.89683752527076       -7.54567964120890
H          120.15708738217964       -1.81599856668451       -9.54432949972609
H          118.54814323737627       -1.04360962492095       -9.58173975668437
H          119.68536462169835       -0.76415064084411      -10.90155715355477
H          122.20229838334200        0.48080282711439       -9.52427322684100
H          121.11943319269768        0.77739958932565      -10.90630784010775
H          121.24064778648101        1.98109652023822       -9.62171083900932
H          118.75421225273435       -1.38925409527415       -7.51972840657680
H          118.78813842401780       -1.37751329795788       -5.09649257606248
H          117.59328964537345        0.85887786580629       -4.48557921503714
H          115.71331375582328        0.84810759183561       -2.56628149023590
C          127.68982762947684        0.19500348474246        0.02180933159340
C          128.31992791799860        0.03779285648402        1.27322035284015
C          127.68591308538178       -0.20616547625747        2.51682724083559
C          128.65206252208040       -0.22485525730016        3.48703937003588
C          129.90470439726650        0.01451883899828        2.86224158613577
N          129.65650536309215        0.14123396542003        1.52140010234780
C          131.15620666811145        0.12784518460693        3.48431221810203
C          131.16752383843536        0.08253055168131        4.96268163093833
C          130.40843933836013        0.97731280015251        5.71973645993089
C          130.41768498920891        0.93528108149982        7.10183142347134
C          131.17864254427931       -0.02207321759158        7.78961401756334
N          131.22417150151645       -0.03877222030548        9.18116683411222
C          130.12777087517466        0.61745348276940        9.89493600393945
C          131.69715723614686       -1.26617529486401        9.82253929933816
C          131.94695462583857       -0.91507841747984        7.02747948455679
C          131.94161656263609       -0.85769268837576        5.64604315774563
C          132.37556884300579        0.27753007833076        2.81916559397146
C          133.63902657337411        0.51747008948874        3.49068143635813
C          134.58438820569876        0.54602635219679        2.52718207174035
N          132.56999843915403        0.20214804961659        1.47328777066082
C          133.89765434278107        0.32824199220816        1.27152042000835
C          134.56789426201078        0.21895503627492        0.03522657013582
C          133.93869190608692        0.09868771231352       -1.22090392974004
C          134.57334541650906       -0.10302603488423       -2.47159304971072
C          133.60687822559424       -0.09510128563056       -3.44178939503264
C          132.35345450135898        0.11913776295328       -2.80958550266006
N          132.60150505011799        0.20370719611823       -1.46542842164810
C          131.10153198508658        0.25006764512882       -3.42795425364625
C          131.09232495616965        0.26023217323645       -4.90691114379600
C          131.85407563093074        1.18240657951308       -5.62792184555269
C          131.84903031158959        1.19186884898335       -7.01047891453938
C          131.08938911181221        0.26147972047511       -7.73585709087902
N          131.05103235448524        0.29844599378719       -9.12719484980902
C          130.54848088892012       -0.88945627956931       -9.81791726083307
C          132.16936084193068        0.95218774226204       -9.80911199009396
C          130.31763129218297       -0.65828880513441       -7.01008439733562
C          130.31939444192716       -0.65284396811309       -5.62732056786309
C          129.88138069019382        0.36989388681840       -2.75828124980905
C          128.61670332314009        0.62921196533447       -3.42021172569876
C          127.67104075841074        0.61527902763311       -2.45658641292997
C          128.35894623697413        0.35313043651884       -1.21005422883165
N          129.68719238713260        0.24231689013983       -1.41613488166648
H          126.62771109699555       -0.36090586685448        2.64732654082373
H          128.50958526559657       -0.40347770902663        4.54030335530337
H          130.36918652080979        0.28660223990436        0.81438037293123
H          129.81949704473101        1.73713147805730        5.21721073537111
H          129.82683574737825        1.66576393164216        7.63928963522695
H          130.25366779388239        0.45224569500748       10.96440575844032
H          130.16297598830167        1.69183214405468        9.71189296444414
H          129.15336076886081        0.22561035118850        9.58281920049198
H          132.74805138686867       -1.42505188317087        9.57918094696359
H          131.11279437674224       -2.13693845954388        9.50483246395970
H          131.61354050512682       -1.15442791791657       10.90305951166679
H          132.56140522242620       -1.66731029846831        7.50511461516460
H          132.53103290982108       -1.57349401781506        5.08333525845216
H          133.76365064977199        0.66689543317652        4.55101918486509
H          135.64374224468659        0.71527608946684        2.63193018225038
H          135.63208939328058       -0.24944618245560       -2.60718425586880
H          133.74976234814068       -0.24052629373196       -4.50009622186607
H          131.88820435437580        0.32208068052359       -0.75402393380416
H          132.44144764322743        1.92290685801792       -5.09561241883672
H          132.44095787816033        1.94186283809770       -7.51918706007948
H          131.11290607343912       -1.78652142602948       -9.53971301319516
H          129.49475328130441       -1.03348656772688       -9.57750327454699
H          130.63181932693070       -0.73385876323511      -10.89304383153886
H          133.13149311151881        0.53413592079520       -9.49313735649131
H          132.05632056351624        0.81638861708310      -10.88410578082901
H          132.15192722042846        2.02213757194377       -9.59923848240462
H          129.70463514961230       -1.39227899322635       -7.51703850193535
H          129.72842551033051       -1.38930794901719       -5.09364962500588
H          128.49146931271216        0.81944053664285       -4.47393465417466
H          126.61087340749206        0.78336335168607       -2.55507427995565
C          138.59759338712010        0.23575388546343        0.02866613324978
C          139.23900529880126        0.08474216740911        1.27468606460376
C          138.61822490725257       -0.13984866224842        2.52858934662140
C          139.59572207967346       -0.15272831782484        3.48742441659606
C          140.84266071143264        0.07076988241515        2.84503550573849
N          140.57918646733771        0.18214968098919        1.50579518741827
C          142.10177583055963        0.18818424530625        3.45048612552355
C          142.12995475425654        0.16759936669705        4.92913802655350
C          141.37882467218984        1.07427892504284        5.68012616460706
C          141.40283552441497        1.05436922420924        7.06250476233560
C          142.17157199560961        0.10835625750663        7.75737119406919
N          142.23191913660708        0.11351408462253        9.14822820759009
C          141.14520184534661        0.78335988286961        9.86397789255234
C          142.71245226829069       -1.10325621861442        9.80403951719558
C          142.93228768493572       -0.79634257463662        7.00134174103895
C          142.91197524955297       -0.76115390322476        5.61931213747764
C          143.31494736453476        0.31997823851596        2.76932701820932
C          144.58484806072460        0.57269085708586        3.42385918913347
C          145.52241050245297        0.57030105413737        2.45239366687415
N          143.49783916898403        0.20908952913970        1.42472784766945
C          144.82544756824424        0.32030768841168        1.20870737849390
C          145.48336264600621        0.16835772030051       -0.02951894159939
C          144.83702346314402        0.03577040886683       -1.27520425384503
C          145.44990253779363       -0.20108327742323       -2.53062560283907
C          144.47220265973689       -0.18258571121314       -3.48901673412595
C          143.23244144447801        0.07167206318172       -2.84472194280964
N          143.49922461767923        0.16861473456250       -1.50517062075143
C          141.97735376222653        0.22562931178555       -3.45120228817005
C          141.95321814924449        0.22521418167020       -4.92996004696741
C          142.72850656293068        1.12479469542580       -5.66497123299645
C          142.70930527422658        1.12532575093912       -7.04740397797926
C          141.92102003211727        0.20784587988663       -7.75858322673438
N          141.86939515721659        0.23619131485493       -9.14954824166704
C          141.33122717539987       -0.94383794480102       -9.82677063155948
C          142.99564049819494        0.85877353599473       -9.84734237760084
C          141.13577533676954       -0.68902313071736       -7.01871251199966
C          141.15200921186135       -0.67451951545228       -5.63613088470626
C          140.76668430580699        0.37482941320424       -2.77056970533690
C          139.50062583739685        0.65381174910016       -3.42183495787357
C          138.56333230996927        0.65562166611607       -2.44998234912443
C          139.25813298939434        0.38486775865735       -1.20914671274240
N          140.58265189057124        0.25432378407581       -1.42643422169564
H          137.56044111862164       -0.28446143861481        2.67366558759420
H          139.46439648055130       -0.31726390168419        4.54444306002224
H          141.28407219017402        0.31264386395715        0.78815714392050
H          140.78437448539236        1.82602980288778        5.17198207354413
H          140.81734222403986        1.79309730898964        7.59452724112416
H          141.28363889859298        0.63588461598848       10.93449148693021
H          141.17983688559912        1.85447806627888        9.66255465977551
H          140.16648963191074        0.38806105630112        9.57018726926342
H          143.76210664607828       -1.26304732879327        9.55574628221779
H          142.12827954905384       -1.97999466698246        9.50291010112304
H          142.63585391096836       -0.97631936654348       10.88338749316508
H          143.55236659193409       -1.54041701508866        7.48449913995734
H          143.49576248982086       -1.48570693427226        5.06193592758727
H          144.71850927274613        0.75203701785678        4.47843964076145
H          146.58235775828649        0.74200930080650        2.54410292676436
H          146.50237418554752       -0.37718933243897       -2.67747712427349
H          144.59808907263036       -0.34646450369837       -4.54678249101922
H          142.79834568002508        0.31384724465115       -0.78645453415613
H          143.33842356813301        1.85479144254975       -5.14359098918196
H          143.31292621700882        1.85816072583580       -7.56727026709136
H          141.87527954799705       -1.85269613920125       -9.54633098216420
H          140.27630469664570       -1.05942699566909       -9.57630223593793
H          141.40920277229213       -0.79859489530543      -10.90373594760243
H          143.95085336411097        0.42015517925924       -9.53836100529093
H          142.86825465240128        0.71864513258906      -10.92016039057921
H          143.00568052435079        1.93020530263471       -9.64459783371354
H          140.50083567330577       -1.41195723189552       -7.51441595567334
H          140.54996474236393       -1.39372342292854       -5.09141570010233
H          139.36931912769103        0.84499911030106       -4.47463211780019
H          137.50535974779072        0.84156712088835       -2.53900684146084
