256
 energy: -445.764246767515 gnorm: 0.000692111219 xtb: 6.5.1 (b24c23e)
Ni          43.67700522435138        0.02474781157290        0.04366309313998
C           40.28881470720948        0.10382764756774        0.13701518872060
C           40.94361218384135        1.12859946367849       -0.51462829756584
C           40.27321744069298        2.19617907039693       -1.19077181265020
C           41.23413153561876        3.04959642029571       -1.61734933876253
C           42.49029041577597        2.51124883851216       -1.18514031757193
N           42.30392962214597        1.31016146059718       -0.54724579819379
C           43.70885317050616        3.16225347969753       -1.33822430591598
C           43.72740217838405        4.51291785509649       -1.94503327545273
C           44.45014089963856        4.75442309575927       -3.11604066283937
C           44.46785483182793        6.01204279941240       -3.69210389139504
C           43.77202677681657        7.06654532256589       -3.09512928173509
N           43.75564653389485        8.31636091417257       -3.68929481113172
C           43.04493504502296        6.83262240139197       -1.92506349068121
C           43.02369868676376        5.56917744119461       -1.36144637032194
C           44.91191440854219        2.59364615163084       -0.93831104081930
C           46.17261342252985        3.26761235418926       -1.00578851406288
C           47.11687364419221        2.37269435414203       -0.62595641411276
N           45.07979553975842        1.30784287581743       -0.47535226223871
C           46.43078694883991        1.15845879972960       -0.32087618833364
C           47.08709780660671       -0.03382686617564       -0.00067039498323
C           46.39903008596431       -1.20742376310231        0.32223066274267
C           47.05011540065376       -2.45005936499894        0.58644027219939
C           46.08416645521933       -3.32207274499431        0.96524383374940
C           44.84652657759528       -2.60362940308693        0.94550510427814
N           45.04772308829553       -1.31453757547664        0.50471110968085
C           43.63723910744163       -3.13269139406448        1.37917339287982
C           43.62002208769653       -4.49627127970600        1.95609241940951
C           44.38132358569558       -4.79949975854207        3.08766350713704
C           44.36217262014097       -6.06941215357478        3.63611880906504
C           43.58813442477243       -7.07464746506837        3.05048670982003
N           43.53520492203347       -8.33506371923445        3.61941602183156
C           42.82159623237195       -6.77868081971189        1.92028296164820
C           42.83848277988619       -5.50327602468509        1.38430592408777
C           42.44326379136471       -2.42504761594212        1.29834817777450
C           41.18903411739575       -2.91093881076541        1.79365101913919
C           40.24879846773359       -2.00215067055570        1.44195388463514
C           40.93042494467169       -0.95640525337241        0.74329079851985
N           42.27986072938840       -1.20434596928124        0.69262604542389
H           39.20579026440377        0.13034335536408        0.16977428731769
H           39.20419815133165        2.26475985130676       -1.31588911850976
H           41.11535645738292        3.96268132598695       -2.17775205000891
H           44.98648587616596        3.93910430269686       -3.58910646746322
H           45.02257120297036        6.18425941987757       -4.60798359185530
H           44.52982749634032        8.50503276635958       -4.30583863217364
H           43.53262358350987        9.07961548693809       -3.07063065950963
H           42.50076515123227        7.64658539562779       -1.45857963461347
H           42.47174231496984        5.40019347502775       -0.44326951448236
H           46.30756469837332        4.29591011931789       -1.29910111931847
H           48.18419394509208        2.50760903795162       -0.55576144063074
H           48.11036713937928       -2.61903579728408        0.48813457003920
H           46.19039928888071       -4.36131508160477        1.23044573381633
H           44.97734829252586       -4.02228879164304        3.55341931458580
H           44.94789644812499       -6.28932825708669        4.52199820468012
H           44.32566729224533       -8.57620853493895        4.19565008615679
H           43.24496788370089       -9.07218801199641        2.99693602094993
H           42.21624381772995       -7.55390126428395        1.46325485405675
H           42.25415789075588       -5.28610014342482        0.49679829004848
H           41.05787404701238       -3.82845016448198        2.34396502499269
H           39.18692038820557       -2.02094377105602        1.62959655774334
Ni          91.69238956879803       -0.01620431141300        0.05394434973882
C           95.08096797961285        0.01751365000836        0.17431333792046
C           94.42567226203975       -1.09011366224884        0.67139725833565
C           95.09626411064923       -2.24097976189869        1.19307644017660
C           94.13514796123120       -3.06820015289806        1.66788683146007
C           92.87857784115695       -2.41335123873089        1.45146860239134
N           93.06512955527364       -1.21895170503248        0.80118626006271
C           91.65904823125928       -2.90447776568169        1.90264823225371
C           91.64071354145119       -4.15625789787802        2.69374409720596
C           90.92648623076091       -5.26954662448888        2.24394750906361
C           90.90959381434489       -6.44415743579218        2.97460268948300
C           91.59778106644889       -6.52508389168350        4.18800632297199
N           91.61542952655589       -7.71037301880634        4.90225726508264
C           92.31636915654560       -5.41672362283335        4.64362895357573
C           92.33675051392341       -4.24923407143873        3.90137106637484
C           90.45521423526753       -2.26151623950658        1.64216976897791
C           89.19285236072761       -2.69674889098461        2.15728923194214
C           88.24903313364109       -1.88688885979581        1.61892807819907
N           90.28845020057616       -1.16301186079452        0.82900966942754
C           88.93698657518517       -0.95552621640827        0.78364805346977
C           88.28211095459864       -0.02320854399145       -0.02633913328334
C           88.97048181111519        0.90216009108989       -0.81626789796851
C           88.31919613080113        1.81612543258685       -1.69859829022280
C           89.28548456807475        2.61520578413572       -2.21282572872474
C           90.52358686673682        2.19572387094479       -1.63010358056835
N           90.32215202871588        1.11184382757524       -0.80477216262983
C           91.73404500902535        2.84653255857678       -1.83368126224871
C           91.75253796991630        4.08219216108538       -2.64954219444453
C           90.99820336930900        5.19583857126703       -2.27184917729055
C           91.01894760464361        6.35554663452631       -3.02590452382591
C           91.78757373571077        6.42088554548154       -4.19103125651550
N           91.84238254175037        7.59228111391073       -4.92591469191872
C           92.54712151881967        5.31232309400693       -4.57404285450715
C           92.52867457615481        4.15996136336210       -3.80857488893647
C           92.92844425707601        2.38374984886032       -1.29338416841117
C           94.18386045251421        3.06229963053369       -1.42783388683322
C           95.12347195884044        2.26565200680899       -0.86572474421247
C           94.44029974482177        1.10745320156003       -0.37769756269687
N           93.09073010889867        1.20417887436183       -0.61071958393947
H           96.16396885842204        0.02994580379836        0.21531086377005
H           96.16554813569145       -2.38141739665974        1.18499587020209
H           94.25398022343117       -4.03833774883397        2.12240374089066
H           90.39626160928428       -5.21669440184373        1.29934808125397
H           90.36149876116140       -7.30562037836043        2.60898254116135
H           90.84541342554694       -8.33237367855195        4.71447298401296
H           91.83187814665642       -7.61473234337757        5.88156601962270
H           92.85465415210395       -5.47441482066075        5.58340238942403
H           92.88207875965527       -3.38765831710850        4.27091156440547
H           89.05660663188274       -3.51252965243808        2.84834367995294
H           87.18091317324301       -1.90710529792406        1.76388324444580
H           87.25865158203108        1.83027979824152       -1.89194944345318
H           89.17926147616859        3.41521225600868       -2.92721081302083
H           90.40640526867334        5.15617408659959       -1.36386531635090
H           90.43864364097729        7.21769047246662       -2.71577397315686
H           91.05522968687779        8.20918322572273       -4.80400902729954
H           92.12735980005334        7.48057123412929       -5.88580730353194
H           93.14826492807327        5.35811017485612       -5.47560840539216
H           93.10756965490589        3.29798814040450       -4.12187923353175
H           94.31609343150612        4.02728239471328       -1.88955791017911
H           96.18582832383422        2.43036216260762       -0.77960293725232
C           52.28819056523166       -0.07639139381126       -0.02506841544345
C           51.06001578072408       -0.07572895528163       -0.01746963497235
C           49.71516446711605       -0.06538697082483       -0.01448204495428
C           48.49150593316865       -0.05420289856834       -0.00908797944156
C           53.63300057969705       -0.07768372346117       -0.02368046302211
C           54.85683920519759       -0.07408926785445       -0.02144675926971
C           68.29711324552788       -0.05592977323534       -0.05829692125668
C           67.06887358749744       -0.05744274833159       -0.05492105050829
C           65.72419820124612       -0.05759122668845       -0.04620034513535
C           64.50030140549799       -0.05670029981378       -0.03565394056405
C           69.64181295957505       -0.05169250029343       -0.05668724278885
C           70.86567860180034       -0.04493776399580       -0.05007232090912
C           84.30842134374423       -0.01406615221343       -0.06752747126960
C           83.08043976197207       -0.01654662973867       -0.07391737273635
C           81.73523600061570       -0.01635905886864       -0.06784974964209
C           80.51164986840331       -0.02010078416079       -0.05649581201076
C           85.65369444481158       -0.01610525526795       -0.05930663437255
C           86.87718152555915       -0.01855374030149       -0.04875569895397
Ni          59.67882352678456       -0.05408625803185        0.01302942256553
C           56.26111411678901       -0.06971334701911       -0.01558302360669
C           56.93164052162701        1.06094337157361       -0.49215745525956
C           56.25341474549669        2.21844791621226       -0.98001536619906
C           57.20507992640479        3.15091192990858       -1.22678135897663
C           58.46397723453006        2.55442763431081       -0.90063563279265
N           58.28452402028429        1.25993588689765       -0.46618770713903
C           59.67111919376256        3.24087496264060       -0.92503313935754
C           59.66821149316230        4.67044575292800       -1.32085056731031
C           59.30783469673218        5.05002009427061       -2.61525596003745
C           59.30850921144012        6.38265648882404       -2.98827490966908
C           59.65784131269257        7.36961410859023       -2.06307750650503
N           59.69826525567391        8.69977796863506       -2.44362325196771
C           60.02389312792384        6.99621049787140       -0.76741294687585
C           60.02935404822000        5.66069416390774       -0.40511418184095
C           60.88242396593667        2.64484890852823       -0.59973734232769
C           62.14054152379178        3.32398027602457       -0.65787786491446
C           63.09781932854501        2.39828899745442       -0.40799470518295
N           61.06809495783381        1.31360294972125       -0.29911336552136
C           62.42317392881053        1.15696878044961       -0.20326830451970
C           63.09621592700630       -0.05405258404753       -0.01453944040794
C           62.42522419523864       -1.26190165726721        0.19994544099697
C           63.09825143920755       -2.50957303912382        0.36619681518143
C           62.14529678626274       -3.42945650279882        0.65354016673502
C           60.89371556096675       -2.73670004637296        0.67076420523552
N           61.07401720043123       -1.40982158227407        0.35022481939511
C           59.68613427548591       -3.33242698328210        1.01265429984891
C           59.69224565075875       -4.74586327448911        1.45470156041616
C           58.97460769026659       -5.71663229660265        0.75171251046322
C           58.98261110288993       -7.03842872541568        1.16006829807355
C           59.70023823878164       -7.41672319891414        2.29787701583392
N           59.74205684872180       -8.74364060918641        2.68709696745585
C           60.42364476165837       -6.45206943129339        3.00421005164799
C           60.41914969669559       -5.13447362416894        2.58273102090682
C           58.47382813729963       -2.65665922670378        0.95173589600378
C           57.22164587457044       -3.23212004403647        1.33565724083523
C           56.26341269153866       -2.32232457632656        1.03359376421615
C           56.93434925744292       -1.18942265051046        0.48277610300688
N           58.28813398917674       -1.38143950836817        0.46638606285167
H           55.18466913119038        2.29848317299381       -1.09673815180985
H           57.07327017259345        4.15963648375074       -1.58246485987290
H           59.04301983285940        4.28873686041393       -3.34083707350948
H           59.03716076917348        6.66546400672127       -3.99951061562471
H           59.12726815517340        8.93252606890479       -3.24034140052946
H           59.63073024569309        9.36153088222006       -1.68696299420717
H           60.30054966044619        7.75749487201008       -0.04622861638217
H           60.29990347926964        5.37901682223687        0.60662358092009
H           62.26739307495820        4.37049372245265       -0.88153010707629
H           64.16767913548723        2.52665560443412       -0.37468847053951
H           64.16318566407709       -2.64849526575914        0.27227602002019
H           62.26918045757785       -4.48515671194078        0.83117098057663
H           58.42254458864376       -5.43250160824273       -0.13749299873723
H           58.43145437566542       -7.78534550708503        0.59924348556998
H           59.98494835842162       -8.89841484691160        3.65243937006917
H           58.97318197336488       -9.30846222602464        2.36361195909065
H           60.98552091726737       -6.74029043674141        3.88592560283579
H           60.96950579700412       -4.38843348816857        3.14550665389529
H           57.10009946612676       -4.20510647252072        1.78289681820420
H           55.19648344546891       -2.39636168290705        1.16939348300394
Ni          75.68847424368087       -0.01751819098446        0.00059748572480
C           72.26996166262354       -0.03792916748916       -0.03969171701718
C           72.93985006106931        1.10041312196907       -0.49810119889388
C           72.25989835119047        2.26435520954791       -0.96821924802827
C           73.21069508570848        3.19944834005951       -1.20701983379485
C           74.47092037619507        2.59780891517650       -0.89515859912908
N           74.29273996621275        1.29884529069311       -0.47330487640858
C           75.67923331137150        3.28117278400488       -0.92938791130756
C           75.67578446946125        4.71182806475696       -1.32110549342973
C           75.29715558687319        5.09610806293849       -2.60894383590965
C           75.29731605347123        6.42959730965338       -2.97872426325535
C           75.67610970175569        7.41184690523819       -2.06011105138099
N           75.63037143900219        8.75004808335066       -2.41083859415310
C           76.04466705145228        7.03508548899569       -0.76615050970941
C           76.05052350752686        5.69865536797567       -0.40716735076490
C           76.89288129277725        2.68084870818362       -0.62058601475787
C           78.15168434562075        3.35695900359107       -0.69514395281997
C           79.10961276203042        2.43023052408313       -0.45151964387640
N           77.07860450596944        1.35028540266694       -0.31819355736162
C           78.43434866385839        1.19161293752590       -0.23332213755029
C           79.10702222771704       -0.01738470862327       -0.03287189034491
C           78.43694040956149       -1.22200003995353        0.19970667538843
C           79.11191520724573       -2.46590406431833        0.38500846877020
C           78.15959737659225       -3.38409343106737        0.67979032744401
C           76.90636220384773       -2.69424789903862        0.68104435869875
N           77.08520026032120       -1.37074072180030        0.34698414914076
C           75.69731575528756       -3.29262389864397        1.01369185070191
C           75.70492334512385       -4.70262418305032        1.46706498727489
C           75.00111948323213       -5.68343269813541        0.76405681447409
C           75.00960340763896       -7.00121632175298        1.18529277886486
C           75.72385973380032       -7.36736667440951        2.32913861418383
N           75.69359709408336       -8.67435832187860        2.78224480492465
C           76.42068958920275       -6.38981947277738        3.04435778594014
C           76.41561450052428       -5.07627859338979        2.61033454576834
C           74.48292224818846       -2.62329695468632        0.93364721391219
C           73.22852900343467       -3.20519307129591        1.30082252890446
C           72.27026971878806       -2.29927192584558        0.98851675752586
C           72.94306225134206       -1.16149469408442        0.44988773236158
N           74.29761114343199       -1.34817494153004        0.44715853590239
H           71.19071286481963        2.34614409018859       -1.07924597340708
H           73.07774750955757        4.21274451135695       -1.54878380362321
H           75.01763910917319        4.33762416322677       -3.33193971253630
H           75.00684069502348        6.71633952342646       -3.98351325583446
H           75.68409601833940        8.93296738853679       -3.40014066637087
H           76.20995856999507        9.35653803785064       -1.85288063862264
H           76.32714946695850        7.79421312698974       -0.04496512804427
H           76.33135961581868        5.41367145732280        0.60083416467519
H           78.27829973051827        4.40240553578813       -0.92411127128609
H           80.18001744017852        2.55659725259045       -0.42941358396902
H           80.17758801560039       -2.60358502578045        0.29759538935795
H           78.28484144347591       -4.43721693291105        0.87155153184760
H           74.45884908540080       -5.41034487009573       -0.13457713916080
H           74.46487678234170       -7.75506811860138        0.62745144511328
H           76.45993363544488       -8.93614416602728        3.38154246488838
H           75.46921515347995       -9.36365528343983        2.08259009250622
H           76.96583268306108       -6.66556365086042        3.94044268311646
H           76.95204217143711       -4.32160851637178        3.17508231106099
H           73.10555125881457       -4.17934516073292        1.74492126327636
H           71.20212089986371       -2.37815036354268        1.11108042325818
