404
 energy: -749.064173799615 gnorm: 0.000719092067 xtb: 6.5.1 (b24c23e)
C           79.39292316523013       -0.07157775684108        0.05270565352388
C           80.01360570343395       -1.30097553175631       -0.12641414053699
C           79.37343775137910       -2.56313596949725       -0.27777624019368
C           80.34415301381928       -3.51156711166816       -0.43552816053505
C           81.60891313560931       -2.85768845604037       -0.39433776387920
N           81.35883384138552       -1.52945811901574       -0.19856488548519
C           82.87782205958234       -3.43900004796394       -0.49778656596584
C           84.08766797957617       -2.74678267659623       -0.40374539113259
C           85.39133114591826       -3.36580025750950       -0.56517729612675
C           86.30218617176840       -2.38237160080856       -0.41519371192327
N           84.22842951404607       -1.41155850686398       -0.17996251053121
C           85.55383701628959       -1.16351581808628       -0.17404185774232
C           86.17815007040679        0.08399409025571        0.02602481593205
C           85.53200656010017        1.31885193665217        0.22128154321730
C           86.16608609064608        2.57048266771451        0.44186457253542
C           85.19108371146558        3.51833390161381        0.58339556194380
C           83.93002834444827        2.87439807063949        0.44453437448430
C           82.66201738884308        3.45797056883047        0.53809170809487
C           82.61523420018182        4.92323554626305        0.75299964677653
C           83.17562011871787        5.79501027015208       -0.18481038942800
C           83.12500149230142        7.16216796184042        0.01496420920382
C           82.51858367897762        7.68424044039025        1.15912272863796
C           82.49007508738896        9.15659063879284        1.32886418494995
O           81.88669824855785        9.55534481641126        2.45891057967037
O           82.95662778274550        9.94114268597224        0.54244874895440
C           81.96135386087037        6.81835224135794        2.10069582594912
C           82.00837772627241        5.45059491331047        1.89602556357668
C           81.45125405988954        2.76303947616060        0.44263508255065
C           80.14001308393286        3.39179213813103        0.49054688894445
C           79.23619316265490        2.40059581265857        0.35746787948415
C           79.99376487185255        1.16942415953538        0.21614509165296
N           81.32396880125832        1.42707374041256        0.26540403040078
N           84.18815369317126        1.54588239670963        0.23405636731945
C           82.92101890975113       -4.90293390155004       -0.72733210443293
C           82.34933174063019       -5.45387742726558       -1.87713623262292
C           82.38710467602604       -6.81968190997075       -2.09697810151749
C           82.99413754902925       -7.65972157230565       -1.16296067733678
C           83.05664291968463       -9.12908077311929       -1.34944341716432
O           82.48544181191559       -9.55049306989605       -2.48809048452332
O           83.56399618375464       -9.89313669824987       -0.56827463839217
C           83.56432655832202       -7.11393572248104       -0.01122756531197
C           83.53053835681425       -5.74848920625251        0.20347102223799
H           78.30780769335894       -0.09227027135616        0.06082114228792
H           78.30575384316720       -2.71297829738998       -0.26049273919007
H           80.20304882263534       -4.57290227508248       -0.56025347453989
H           82.07772010162765       -0.81859997865531       -0.11396282450601
H           85.56410332121600       -4.40826026577775       -0.77786773709148
H           87.37713268107986       -2.44738042363875       -0.46728916631801
H           87.23317404673999        2.71571419629057        0.49070425657449
H           85.32977812315399        4.56929668108304        0.77771621177265
H           83.63373952876742        5.39313294499769       -1.08145737549668
H           83.55160820980799        7.84413298635323       -0.71240869453186
H           81.90966420762403       10.52542977736081        2.49378054698531
H           81.49349081271681        7.21882956145947        2.99225277951280
H           81.58705696473235        4.77773019054435        2.63432429134737
H           79.96054139925374        4.44944080620309        0.59741010018244
H           78.15955551188543        2.46554026587406        0.34294308251517
H           83.47192806207106        0.83691403943422        0.11551843467384
H           81.88945381458527       -4.80036337470810       -2.60997982946733
H           81.94723035215971       -7.23819440909102       -2.99449374588227
H           82.56901913345079      -10.51676643226225       -2.53441120269159
H           84.03074113957253       -7.77638919222624        0.70968631517847
H           83.96262515423903       -5.32806851752103        1.10437577911929
C          166.17982884899240        0.11898486346226        0.09363741125969
C          165.55658117194960        1.29965589557256        0.47611687279006
C          166.19392001333409        2.49895736455425        0.90196702337150
C          165.22132200969111        3.41877231212003        1.17518354706191
C          163.95819546852425        2.81380779668115        0.91539575820588
N          164.21106184299143        1.53567610070895        0.50600735250139
C          162.68808418272252        3.38174974622292        1.06660593169734
C          161.48017956072613        2.71876190356112        0.83502922260643
C          160.17603661737263        3.34857106613292        0.94133161456858
C          159.26718233100888        2.39698481954843        0.64493684013183
N          161.34206814156224        1.41760469016771        0.46058978633598
C          160.01731929823737        1.19150435713056        0.34869137854974
C          159.39527287418693       -0.02607003895674        0.00732858102940
C          160.04396224815252       -1.22684645528108       -0.33560107732090
C          159.41304611514983       -2.45542828031072       -0.66684859738912
C          160.39007390758061       -3.36664199739137       -0.95725035966027
C          161.64910140269140       -2.71862968810223       -0.81912774320539
C          162.91825957262930       -3.27755131319640       -1.00408718959912
C          162.96736340079303       -4.68778951160649       -1.45583903802131
C          162.39401477115200       -5.05996347911081       -2.67503534766819
C          162.44735319990519       -6.37464683635593       -3.09958399106215
C          163.06933951084017       -7.34421450427094       -2.31061380780922
C          163.10009440130364       -8.74022174859505       -2.80833809892303
O          163.71949244346095       -9.59288337162872       -1.97812871479622
O          162.62240792594147       -9.10005008895034       -3.85429198115633
C          163.63918288332155       -6.97913733009883       -1.09043807391925
C          163.58950110640353       -5.66163571611051       -0.67010475003760
C          164.12755771771975       -2.60464504937055       -0.79750633888299
C          165.43978643912993       -3.18415262035064       -1.04085480486760
C          166.34150311370436       -2.23217635646216       -0.72826708497083
C          165.58154360553931       -1.06811206417312       -0.30735978336937
N          164.25205617125414       -1.32643358719518       -0.36943361881604
N          161.38807113591224       -1.43070688484669       -0.43341367790785
C          162.63968500583536        4.79602661173648        1.50784850013485
C          163.22328516594661        5.80020217837601        0.73108104229348
C          163.17997069678765        7.12151289319444        1.14046513290797
C          162.55524190065205        7.45945618763363        2.34132226945275
C          162.48667302417653        8.85851065989794        2.82676432692275
O          163.07108266169834        9.74185823654795        2.00316573584875
O          161.96201102896595        9.19600474806960        3.85745171142101
C          161.97262576358276        6.45909786513402        3.12193746319139
C          162.01218076610903        5.14051118600507        2.70818153451422
H          167.26490944489160        0.13636116347783        0.10989158507455
H          167.26109444849976        2.62622044370337        0.98937047789354
H          165.36015253537695        4.42575240211582        1.53380457707043
H          163.49377151755940        0.86023805654651        0.26405893735158
H          160.00183285184505        4.38174621235987        1.19438600369041
H          158.19259242379786        2.47930588503649        0.61446564058379
H          158.34661004819830       -2.61299196084947       -0.67486386760046
H          160.25428463315725       -4.39967469711051       -1.23284072779100
H          161.92362320292463       -4.30651412257320       -3.29665972007790
H          162.01094945608736       -6.66832608514136       -4.04797863761182
H          163.69719059127792      -10.47893421981366       -2.37465004636292
H          164.11901395914353       -7.72906288285989       -0.47276055817043
H          164.02076932309188       -5.38101379599969        0.28414519868285
H          165.62122227779520       -4.17961852085005       -1.41284220928116
H          167.41807060827401       -2.27946313991985       -0.77663315862837
H          162.10255808961028       -0.73561054436481       -0.24363087862220
H          163.69670443283249        5.54036092645752       -0.20911445272152
H          163.62928438317127        7.89505324131014        0.52896891005634
H          162.98163488203346       10.62813269936476        2.38960257183789
H          161.49249147373823        6.73244456733572        4.05514644724217
H          161.57049717484642        4.36373450854703        3.32190015015142
C           91.38057549139853        0.14944620895523        0.05107058479635
C           90.15259819433965        0.14434382103696        0.04543638431540
C           88.80797399836395        0.13170611006718        0.03660288460195
C           87.58451187885615        0.11141642236236        0.02939916763379
C           92.72512512756850        0.15085511459315        0.05490844038423
C           93.94888341246511        0.14461668444589        0.06103359648591
C          107.39650357587954       -0.08912704174419       -0.09876823136599
C          106.16795573989758       -0.07710896454137       -0.09269322597343
C          104.82549456950531       -0.05602650191638       -0.08020331270703
C          103.60161921011782       -0.03053247307884       -0.06367835908485
C          108.73916139925791       -0.08900222174691       -0.09815348741152
C          109.96335564868005       -0.08546528725303       -0.08604351344793
C          123.39947518518322       -0.02084405091893       -0.02443604857349
C          122.17090452312802       -0.01887213229946       -0.02552831044139
C          120.82850471787381       -0.01640201487352       -0.02216012453241
C          119.60432091378544       -0.00716751276190       -0.01852805580059
C          124.74187227547303       -0.01774787718202       -0.02304930049947
C          125.96606581808203       -0.01450704227954       -0.01810500286058
C          139.40330624545626       -0.05136440302169       -0.06125418179861
C          138.17472058275357       -0.04993065223891       -0.07286096646021
C          136.83204854830004       -0.04493292495221       -0.07531870848134
C          135.60785465370950       -0.03344176573147       -0.07172094820063
C          140.74590467757599       -0.04815213413184       -0.04440632565265
C          141.96990835028302       -0.04399689753007       -0.01980900287356
C          155.42073446539089       -0.08873964731909        0.01732891452157
C          154.19280817202167       -0.09264630173550        0.03022573104226
C          152.84820588728215       -0.08803549139700        0.04029169399017
C          151.62462055874718       -0.07137650135604        0.05245110585838
C          156.76547507995627       -0.07663760803026        0.00978696512168
C          157.98887690953700       -0.05584772796753        0.00492581156697
C           95.35450475891311        0.13525038298324        0.06006863452077
C           95.98417487811288        1.07431129845579       -0.77897876616740
C           95.33667334106310        2.01048587089508       -1.62646950756056
C           96.30267865603992        2.74316199511031       -2.26006507144033
C           97.56907111131098        2.27895867626792       -1.81131037737195
N           97.32589368237433        1.26536106759865       -0.92390037009717
C           98.83092086271806        2.73606792647884       -2.21107436623091
C          100.05331625035727        2.21259106081801       -1.78713437572789
C          101.34479334539529        2.74556025268673       -2.18302729768767
C          102.27570920395391        1.97872177260429       -1.57899359196286
N          100.22118471247512        1.15803551782806       -0.94240261798025
C          101.55134017467186        0.98844290958920       -0.80672535702109
C          102.19875223772766        0.00271068046296       -0.03490583957970
C          101.56796659466953       -0.95607334149039        0.78117964112652
C          102.21329520109175       -1.95725927658487        1.55212870221946
C          101.24829616928676       -2.66325917051025        2.21679869669646
C           99.98535222488684       -2.10741394462255        1.87489110427163
C           98.72532820784771       -2.52815849437776        2.31765666322568
C           98.71267972014473       -3.63304039873387        3.30637223121143
C           98.08739291415510       -4.84662208722892        3.00851217132023
C           98.08675541171704       -5.87608025612138        3.93167601266945
C           98.70716099215973       -5.71048924326249        5.17140320092579
C           98.68125393494344       -6.84347255239841        6.12751971093599
O           99.30702910059171       -6.58277539558975        7.28521851266918
O           98.15707314438312       -7.90585863173725        5.90913746081711
C           99.32973760232942       -4.49950135010846        5.47522546923931
C           99.33347981115712       -3.47231908071952        4.54796670534672
C           97.50277999399509       -1.99415255374163        1.90625432662169
C           96.21473574625543       -2.42817818328792        2.41723723521412
C           95.28269720303734       -1.69055010927382        1.77951064826834
C           96.00321974321471       -0.79812482709418        0.89264432421400
N           97.33319836079028       -0.99620096473631        0.99611327944108
N          100.22892662612871       -1.08560087206831        0.99691944409186
C           98.85249557281595        3.87075985806656       -3.16536688333026
C           98.29755928827795        5.10360636814600       -2.81199941801628
C           98.32796489467759        6.16286233944677       -3.70023337659594
C           98.90779543692173        6.00776022886395       -4.96074962538453
C           98.91602855234083        7.17273036520767       -5.87789368804990
O           99.49583585636240        6.92036994739596       -7.06094676233244
O           98.45375865405282        8.25240199958896       -5.60968387970476
C           99.45858885519245        4.77738163562783       -5.32041838126557
C           99.43195048910280        3.72019720561283       -4.42785721318617
H           94.26807344396566        2.10174462621565       -1.73500491057198
H           96.15335404234877        3.52887058739796       -2.98243343640389
H           98.04692620382218        0.73083331776335       -0.45094837918301
H          101.49726819473564        3.59879287731282       -2.82371976720660
H          103.34973315355474        2.06020407816365       -1.62699433316546
H          103.27940977016431       -2.11331923290792        1.58490133238282
H          101.39616269034316       -3.50208359871954        2.87703899314030
H           97.61766994834706       -4.98244001970529        2.04107198450516
H           97.60862298466513       -6.82265468786301        3.70483232030945
H           99.24603373827462       -7.36903258736630        7.85172440523302
H           99.80907935944307       -4.36475671274641        6.43762441571462
H           99.80658561923438       -2.52706948573896        4.78936615504671
H           96.06600514060490       -3.18546068070423        3.16965934862240
H           94.21044579264259       -1.72007538054874        1.88830272937054
H           99.50951404118993       -0.51264604850444        0.56862528631481
H           97.85982936953845        5.23078705913156       -1.82835869700747
H           97.90601035421579        7.12454956424212       -3.42962819548773
H           99.46208759805354        7.72820995309964       -7.59863342537306
H           99.90623541016242        4.65137596327825       -6.29911952325169
H           99.84973601247519        2.76085712735324       -4.71146706019202
C          111.36666839784438       -0.06726247498266       -0.06782504454621
C          111.98781842609884        0.87734995724750       -0.90807854385933
C          111.33115459806945        1.78561290053653       -1.77820591911910
C          112.28768467465152        2.55123574580322       -2.38716905313319
C          113.55634025616654        2.13469007619614       -1.90061529391927
N          113.32514608937113        1.11335722013668       -1.01878983850087
C          114.81169896746067        2.64073115556509       -2.26043920959101
C          116.03827607655316        2.15431799036092       -1.80617614459806
C          117.32342824101107        2.72633286531438       -2.16552549699527
C          118.26026934821240        1.98021427588458       -1.54474379857987
N          116.21466581739824        1.09942776389020       -0.96307307179013
C          117.54502193624010        0.96577847571141       -0.79551324351099
C          118.20107519153193       -0.00420989312223       -0.01081700188254
C          117.58084762770739       -0.97346391535763        0.80131755814377
C          118.23897803439715       -1.94769421024096        1.59572036966810
C          117.28171851764306       -2.67004229843122        2.25431383076643
C          116.01100744279830       -2.15292660750146        1.88309646330873
C          114.75456676229342       -2.60103843949698        2.30925461495542
C          114.74944321082829       -3.68332923955968        3.32250696660188
C          114.15915865173670       -4.91853199394216        3.04260467783613
C          114.15552537668880       -5.92155842152644        3.99443339935752
C          114.73751225183960       -5.70735053519583        5.24530792355069
C          114.70261811715613       -6.81064335906027        6.23528528516052
O          115.28379556625113       -6.50108317569205        7.40409427204328
O          114.20600191932365       -7.88954941707170        6.03399723788504
C          115.32866117323667       -4.47604493945398        5.52963903907358
C          115.33620450646180       -3.47560600782188        4.57363267740936
C          113.52761438075458       -2.10817280666025        1.86257703334118
C          112.24026279516195       -2.56636521614849        2.35308021491062
C          111.30418065515278       -1.86451501727972        1.68161552963114
C          112.02148811421631       -0.96942954703375        0.79489214132422
N          113.35264010774222       -1.13116570270964        0.93015396591592
N          116.24228502294250       -1.13646350206491        0.99567047440423
C          114.81653047978163        3.79064120805849       -3.19623847558483
C          114.19992938446313        4.99225509402537       -2.83667186900222
C          114.21081837099155        6.06936396807422       -3.70336584614167
C          114.83311904367577        5.96384014281716       -4.94866641258611
C          114.81827999501702        7.14672415685034       -5.84256913088749
O          115.44844834568728        6.94586550830172       -7.00954606617474
O          114.29717819889638        8.19813461509174       -5.56986247390137
C          115.44540053979657        4.76483965053924       -5.31477158782833
C          115.43770176384233        3.68946028217543       -4.44357614419249
H          110.26346902425679        1.83793777891966       -1.91709083560350
H          112.13066623055433        3.32878357969284       -3.11669591686410
H          114.05182809849259        0.60879332424179       -0.52216821900311
H          117.46769676927636        3.58809771606865       -2.79663645437743
H          119.33245752499664        2.09178997739587       -1.56558316266847
H          119.30811567051221       -2.07465847522278        1.64888652741216
H          117.43977165762306       -3.49556382538287        2.92884929740541
H          113.71769058270112       -5.09128003611037        2.06777371144110
H          113.70300575532055       -6.88407146973085        3.78256649741400
H          115.21847773000812       -7.26998471951035        7.99347514085857
H          115.77929940363168       -4.30410896209708        6.49994563379948
H          115.78351909267124       -2.51418275606267        4.79984211622950
H          112.09389709722832       -3.31390002293270        3.11563185534766
H          110.23086449365222       -1.92023849380639        1.76717459069472
H          115.51468950678289       -0.58887543297460        0.54842724376703
H          113.72865641472100        5.08110491733626       -1.86437656949466
H          113.74058819533903        7.00683310712942       -3.42742505619777
H          115.39539295434311        7.76246615473277       -7.53226303748738
H          115.92556297446777        4.67720290719400       -6.28218863592429
H          115.90261506658709        2.75400494876313       -4.73349076146189
C          127.36932460582240       -0.00628900262064       -0.01361144337101
C          127.98896128341364        0.92967396106951       -0.86431765515281
C          127.33004016038186        1.84241572593820       -1.72797128481258
C          128.28634158830519        2.59414251683802       -2.35424001979261
C          129.55720876506558        2.16450344674824       -1.88486755630125
N          129.32710750803224        1.14957860479187       -0.99543302419352
C          130.81304962617645        2.65431094166224       -2.26498324854703
C          132.04045175113495        2.15448567109043       -1.82723831107826
C          133.32663897470579        2.71266303276006       -2.20411097438881
C          134.26375381683573        1.95861519189388       -1.59335294243796
N          132.21696502192742        1.09892241487059       -0.98505147465490
C          133.54811033897653        0.95223027205675       -0.83372517460075
C          134.20441500999189       -0.02320876546468       -0.05598403177538
C          133.58439132699706       -0.98984677656806        0.75976655749777
C          134.24225487976497       -1.97446467644242        1.54153986984800
C          133.28599153310773       -2.68953536875774        2.20956291771281
C          132.01630306801272       -2.15672087478767        1.85792050084645
C          130.76102671499339       -2.58988072393532        2.30245315953637
C          130.75498275237737       -3.67717165422649        3.31048663779508
C          130.14360958358097       -4.90231334554946        3.03149581077051
C          130.13388585905855       -5.90892011011772        3.97944883773448
C          130.73036115862885       -5.70806127639174        5.22570926236348
C          130.68532524409429       -6.81347469087878        6.21292432151251
O          131.27846512009432       -6.51590532771126        7.37881729372868
O          130.17098428682789       -7.88412682820786        6.01205154318238
C          131.34356473903438       -4.48726544940100        5.50860722908687
C          131.35763132114042       -3.48342767795746        4.55615970650098
C          129.53386764381094       -2.07729143677506        1.87958624781285
C          128.24885861812993       -2.51791167611679        2.39197435283529
C          127.31136582788210       -1.80105879855939        1.73860509869359
C          128.02596691976154       -0.91511210741530        0.84059651420876
N          129.35671583792703       -1.09535508181738        0.95279373465792
N          132.24676138342849       -1.13958915275859        0.97095986650682
C          130.81570314823463        3.80149630888696       -3.20391943088845
C          130.21029605671242        5.00788548435315       -2.84089540274236
C          130.21466423976264        6.08144832242266       -3.71193922624874
C          130.81955722417149        5.96789439903977       -4.96509325562914
C          130.79692006680304        7.14687676582370       -5.86395432645146
O          131.40852543669834        6.93795106411569       -7.03934176752108
O          130.28489247017851        8.20193757016754       -5.58811990949564
C          131.42167818350455        4.76466921659259       -5.33417614590010
C          131.42023875652336        3.69265402862380       -4.45876794140698
H          126.26107081898337        1.90695263612006       -1.85098346151963
H          128.12725756066141        3.37013310251008       -3.08495151381500
H          130.05515334383006        0.63759973784072       -0.50850641571144
H          133.47146409518390        3.57187271179672       -2.83857722345943
H          135.33665389110840        2.05931673053911       -1.62813499359633
H          135.31053116853752       -2.11343148451082        1.57979849535323
H          133.44369250381123       -3.51952391135204        2.87869978741439
H          129.68935757666131       -5.06404916290740        2.06064942512336
H          129.66440999419717       -6.86348699680144        3.76850987208683
H          131.20493292546342       -7.28521324987572        7.96670172866154
H          131.80562061140870       -4.32583275875906        6.47533845736489
H          131.82170527317038       -2.52980033911151        4.78156821106688
H          128.10519211327625       -3.26491644120052        3.15555812953230
H          126.23904624286412       -1.84094883880007        1.84338968771282
H          131.51925256593185       -0.58186225770097        0.53626360533731
H          129.75236906346939        5.10293120447433       -1.86282295004512
H          129.75217863893053        7.02208613920286       -3.43370148215731
H          131.35147914313350        7.75255323581305       -7.56475222595296
H          131.88850083490564        4.67089686780101       -6.30752854068379
H          131.87622108884503        2.75367840276270       -4.75146629847960
C          143.37318081988897       -0.03389679943419        0.00622659214726
C          144.00652883743794        0.90215214730747       -0.83386026014613
C          143.36357172074591        1.81157302157840       -1.71288895396414
C          144.33091794355639        2.56483947998517       -2.31973593105839
C          145.59302652903756        2.14028213350751       -1.82195384634908
N          145.34663807118807        1.12565505015705       -0.93656243163865
C          146.85462156633477        2.63600923194874       -2.17337282815028
C          148.07572949280720        2.14290649272594       -1.70957950263615
C          149.36537721567868        2.71272287004709       -2.05683018492283
C          150.29581990721556        1.95730321313794       -1.43770993494555
N          148.24272839340071        1.08136597781631       -0.87414993173854
C          149.57275705332378        0.93800375829255       -0.70274129181157
C          150.21909126775054       -0.05262001112810        0.06290925149156
C          149.58642466728335       -1.03034306127152        0.85406940276584
C          150.22960917772838       -2.03027984965206        1.62886096629640
C          149.26182808679951       -2.74773384530814        2.27723384158094
C          147.99892043053268       -2.20180447653890        1.92007810284541
C          146.73667763124175       -2.63274085097832        2.34688496983604
C          146.71233565610930       -3.73477320067727        3.33849406801368
C          146.09002549658535       -4.94844518789450        3.03392182160138
C          146.05742635284543       -5.96919431937611        3.96589717520379
C          146.64197548244306       -5.79444743077161        5.22174496572128
C          146.57021640260689       -6.91347696726810        6.19169922070755
O          147.15024595617038       -6.64031267678239        7.37016154613019
O          146.04614111326458       -7.97488542046721        5.96794933014283
C          147.26729869785746       -4.58590305362108        5.52974636972649
C          147.30408140509073       -3.56770386973168        4.59315659486494
C          145.51542043321155       -2.11009849468859        1.91837504435634
C          144.22445872920682       -2.54958888418606        2.41746423989656
C          143.29453011624406       -1.82909051135867        1.75743804614501
C          144.01934097704734       -0.94196460214312        0.86902856317416
N          145.34890299533046       -1.12371271237439        0.99471152722177
N          148.24523199775658       -1.17437504316074        1.04972603141713
C          146.87103589620489        3.77775923332493       -3.11880247743992
C          146.24728486387687        4.98206359296521       -2.78088857036835
C          146.25695595687597        6.04547444309856       -3.66432713027272
C          146.88579264282487        5.92360174630159       -4.90486839160117
C          146.86269987880232        7.08946671677739       -5.82052961362469
O          147.49471457340368        6.87149801866661       -6.98349757692230
O          146.33300560268592        8.14167931936160       -5.56810463144652
C          147.50933628551243        4.72345187482750       -5.24750976733246
C          147.50258466154725        3.66182896389142       -4.35969162383054
H          142.29730916048058        1.87248458704110       -1.85912924075708
H          144.18499651446649        3.33886782236397       -3.05523999150243
H          146.06472384593425        0.61510436071090       -0.43365646995854
H          149.51614904884082        3.58002318031038       -2.67881381796250
H          151.36854313281844        2.06453654418904       -1.45207829058781
H          151.29660004158114       -2.17630337137674        1.67656511970136
H          149.40715223784582       -3.58752746549261        2.93690483789216
H          145.64431514775870       -5.08946356514611        2.05590346874046
H          145.57832195650033       -6.91437359847223        3.73526297108951
H          147.05824594981729       -7.41704022314809        7.94555119816357
H          147.72036183346265       -4.44496020284123        6.50392156386072
H          147.77670562505631       -2.62327612099781        4.83865850493085
H          144.07172385522304       -3.29792701655155        3.17795730618736
H          142.22116679602058       -1.86722967705333        1.85176865045580
H          147.52670983774146       -0.60581111760299        0.61413530677021
H          145.76935919654079        5.08335315827492       -1.81306453295081
H          145.77876044148212        6.98401350511880       -3.40628601699924
H          147.43441288105151        7.67725357222963       -7.52198531502673
H          147.99579508219185        4.62347866630844       -6.21056507460489
H          147.97433293905272        2.72459035081076       -4.63229327363674
