256
 energy: -512.691824874442 gnorm: 0.000745568668 xtb: 6.5.1 (b24c23e)
Cu          44.56204279074714       -0.00579913793645       -0.04983615023893
C           41.15499988754246       -0.03334415306066       -0.08443367030448
C           41.79127702462759       -1.25043546700558       -0.27300694399458
C           41.11698966235399       -2.50642306048946       -0.43721584056921
C           42.07597710843247       -3.45142587005493       -0.59476192186795
C           43.34572032567525       -2.77793815598486       -0.54022018435671
N           43.14227838890726       -1.44432140558426       -0.33518036117723
C           44.59190578517876       -3.40001492728036       -0.65224850103788
C           44.60099018844660       -4.85912067590612       -0.91283097683586
C           45.18031127140755       -5.73914421408432        0.00625013679054
C           45.17932816953247       -7.10208461133473       -0.22852360658549
C           44.59872445302987       -7.58960886801206       -1.39598064246288
N           44.59350976104197       -9.01980904836116       -1.64704661323261
O           44.07544527497698       -9.40560630387436       -2.66359335620664
O           45.10694821967486       -9.73256171265589       -0.82316151540452
C           44.02126361713581       -6.73021262279343       -2.32640615946635
C           44.02288709120902       -5.36962837748988       -2.07926554335654
C           45.82619191814668       -2.75595798405921       -0.53890219190151
C           47.10294213936591       -3.38770870168853       -0.71734897767881
C           48.04829501432933       -2.43010471810009       -0.54221531684027
N           46.01327134329357       -1.42576794659864       -0.27224981528635
C           47.35701467808774       -1.20703298744680       -0.26487863402241
C           47.99302108790993        0.02294151472030       -0.02051941943708
C           47.33251099975809        1.24166690588733        0.21467801097774
C           47.99850859407463        2.47543812531855        0.50607040218552
C           47.03443002504864        3.41658110934076        0.66801145133810
C           45.77158437368512        2.76410436702752        0.46655529253791
N           45.98535396561920        1.43783485621536        0.20030373551291
C           44.52486166962633        3.38714151004209        0.55925401740125
C           44.50401204055517        4.84488702387374        0.82674296244935
C           43.89500405159210        5.33860722107230        1.98468787200541
C           43.86472857338994        6.69748408040181        2.23909537793197
C           44.44444789473941        7.57212193798987        1.32440507924013
N           44.40910187475050        9.00055021031915        1.58293769772256
O           43.86582690723314        9.37132103568355        2.59189882161542
O           44.92559203153242        9.72691824629254        0.77295914428190
C           45.05547741147297        7.10146460937011        0.16559175385067
C           45.08491580668012        5.74008842785598       -0.07648779929528
C           43.29147717829257        2.74511089508258        0.42083678902926
C           42.01021049664583        3.39803244470726        0.45050657895241
C           41.07001184638019        2.43825559266897        0.27059945172432
C           41.76763531119370        1.19360007542470        0.11802688309610
N           43.11378582990579        1.40898465602638        0.20849604456473
H           40.07011451550981       -0.04201410920732       -0.09579710872512
H           40.04640038843113       -2.63532278350388       -0.42119148993403
H           41.94238123054149       -4.51341009724902       -0.72315296712033
H           45.61710945935812       -5.34829802977815        0.91784270851906
H           45.61870648931724       -7.79246337078178        0.48141405649182
H           43.58001024104050       -7.13439263672427       -3.22952130245528
H           43.58618863006329       -4.68902871946549       -2.80083385185179
H           47.25312086215717       -4.42694467330208       -0.96090179116199
H           49.11998406136478       -2.53179644667050       -0.60147633230169
H           49.06725807732224        2.59470865348675        0.58317378938836
H           47.16311668272227        4.45756516060962        0.91636414046066
H           43.45656970910995        4.64633339874412        2.69399824595783
H           43.39927139520730        7.08870840083244        3.13573995736725
H           45.49582673163781        7.80348428488652       -0.53222579888549
H           45.54557776925674        5.36223226945392       -0.98178613483201
H           41.85693452309441        4.45740272542391        0.57852742495962
H           39.99806385343635        2.55007641658159        0.23246096213047
Cu          92.71256828435236        0.05411960937172       -0.02432216691714
C           96.11926238521885        0.09112625616441       -0.06654176797764
C           95.48520348923475        1.29067921307756        0.21771356384001
C           96.16182834693245        2.51640826698015        0.53222038094667
C           95.20448232191517        3.45241414767131        0.74414280883734
C           93.93336444660611        2.80853839858169        0.54793257430563
N           94.13443941237716        1.49470745535369        0.23897790912356
C           92.68817367921709        3.42889930319394        0.67890247450204
C           92.68083655237778        4.87952848684398        0.98304950607608
C           92.10232315918766        5.35172007136656        2.16509073081862
C           92.10456912546017        6.70332627548921        2.45802136159184
C           92.68567606494780        7.59220062283469        1.55803751029103
N           92.69234115640693        9.01224993067363        1.86122752102813
O           93.21223831935338        9.75024576583767        1.06398597396471
O           92.17812550331158        9.36493416017179        2.89162264133673
C           93.26225042542113        7.14343554715174        0.37317957857107
C           93.25930692103151        5.78933938333531        0.09255623841839
C           91.45287678786977        2.79060858227763        0.54519660407900
C           90.17716022383699        3.44547987494557        0.61397150476767
C           89.23026529673045        2.49265631792071        0.42178161334665
N           91.26367585153594        1.45668807456934        0.29971727954167
C           89.91954892386953        1.25270093951489        0.22675350413757
C           89.28158588946334        0.01935568477458        0.00562128161075
C           89.94035875042091       -1.20179067511268       -0.22196357312836
C           89.27300245563313       -2.45628586034772       -0.39928272140281
C           90.23558225975565       -3.39101169354112       -0.60226282615206
C           91.49873311361395       -2.71006245286169       -0.55980714790236
N           91.28687312156205       -1.37907754449476       -0.31675382607235
C           92.74414022860911       -3.32284940062859       -0.71675193132712
C           92.76175600590250       -4.77501892848324       -1.01298500246820
C           93.38020878085533       -5.66635336776668       -0.13068336619247
C           93.40699245355469       -7.02173665178339       -0.40364077235431
C           92.81419479000471       -7.49037534597340       -1.57270019728342
N           92.84589965206968       -8.91171417867032       -1.86810211532060
O           93.39793863954078       -9.63340580865645       -1.07755475774986
O           92.31776233863867       -9.28187091332669       -2.88524437108695
C           92.19349736261047       -6.62008835700056       -2.46436793549621
C           92.16770818838661       -5.26708192224926       -2.17908322311586
C           93.97835257040411       -2.67513317324101       -0.61803300384952
C           95.25783928031385       -3.29189880462919       -0.84457607986139
C           96.19951035921115       -2.33419491936242       -0.66129350251840
C           95.50447920794745       -1.12244226243321       -0.33307031328341
N           94.15839948799676       -1.35601266215857       -0.31890040068905
H           97.20408633550451        0.10303461014199       -0.08080708501754
H           97.23277960830988        2.62917761405753        0.59040685547383
H           95.34016946175822        4.48518176214609        1.02185762033280
H           91.66509659477867        4.64820263277069        2.86399127642585
H           91.66581207477107        7.07783711279932        3.37504051124393
H           93.70378858829922        7.85614009900629       -0.31295582642975
H           93.69516027450437        5.42832315335084       -0.83171589421186
H           90.02870903193300        4.50120522038609        0.77301826466694
H           88.15873786648511        2.61064877925252        0.40491600930861
H           88.20452032454538       -2.59565301447917       -0.36316522765087
H           90.10578958085986       -4.45042157777927       -0.75290235910117
H           93.82879210850595       -5.29003657385843        0.78131618078427
H           93.87970895580203       -7.72026084434119        0.27627568997560
H           91.74293861521321       -7.00979151124684       -3.36925001431516
H           91.69956157081351       -4.57771404273726       -2.87202852410597
H           95.40894050427293       -4.32261717856878       -1.12194799757934
H           97.27080525864658       -2.42370197935085       -0.74705158120486
C           53.19647648026202        0.04988481096873       -0.00100129943231
C           51.96818349898690        0.04641641434658       -0.00179265119685
C           50.62315476198175        0.03958022373365       -0.00526619951088
C           49.39943220636373        0.03446589293531       -0.01116199407169
C           54.54139040768023        0.05224438304308       -0.00171979543435
C           55.76535234119137        0.05325003531617       -0.00465368886372
C           69.25180376183187        0.02485078219365       -0.03784371005775
C           68.02324681013596        0.02840374297263       -0.04137702800972
C           66.67859555345670        0.03161905840173       -0.04361241383753
C           65.45442168817299        0.03445227027111       -0.04300492532576
C           70.59644206637510        0.02009086250014       -0.03459904566816
C           71.82053592541747        0.01608854489115       -0.02998772583455
C           85.30648800741487       -0.00798847001238        0.01540363984917
C           84.07819925593333       -0.01318969495114        0.01301185549262
C           82.73334690944414       -0.01517055033898        0.00972199002709
C           81.50935896700001       -0.01460699145519        0.00539867362005
C           86.65147318663708       -0.00197555833435        0.01470719829736
C           87.87524391158591        0.00662655514441        0.01176494564222
Cu          60.60990879475548        0.04433792775427       -0.02808221516923
C           57.17113844935094        0.05126873706993       -0.00988522248124
C           57.81849004386356       -1.19546214777308        0.06163118859267
C           57.13962780360084       -2.44985257447583        0.18915762714562
C           58.09401236411598       -3.41434086633302        0.21681805287069
C           59.36277498028745       -2.75345048143486        0.09652334194965
N           59.16260792631085       -1.40185803422757        0.01322532361771
C           60.60357605190110       -3.39553390709950        0.09146676478994
C           60.59961779644222       -4.87720224969736        0.14100397557969
C           61.19670823662001       -5.55012102115772        1.21129455166968
C           61.19109891643155       -6.93206600867288        1.26408021912687
C           60.58778216974367       -7.64831066434461        0.23419076203318
N           60.58024745490179       -9.09963170915821        0.28375449962005
O           60.04449585608343       -9.68567333917598       -0.62173558559134
O           61.11072298538546       -9.62807418435981        1.22704269030536
C           59.99088249900466       -6.99786220328127       -0.84205252276468
C           59.99714518271297       -5.61554107093469       -0.88218574388967
C           61.84682484047080       -2.76014183399267        0.04376884283088
C           63.11331096671951       -3.43229350728016       -0.02775073915869
C           64.07123858677494       -2.47159488519163       -0.06472737578125
N           62.05194261250394       -1.40663915257635        0.03367125501784
C           63.39683076996734       -1.20892343215392       -0.02649146129695
C           64.04883390988941        0.03754968025360       -0.04125810569628
C           63.40167035859658        1.28653080609622       -0.05424957562942
C           64.08121695361801        2.54673135997989       -0.02625845927048
C           63.12678795384539        3.51099887001349       -0.06100522420996
C           61.85714596680658        2.84348538143167       -0.11885727825113
N           62.05708182488923        1.48928840901465       -0.10441547265741
C           60.61606913384756        3.48380334599307       -0.15649092585524
C           60.61810081071384        4.96520172470675       -0.21492857378281
C           61.20431393382386        5.62798838807880       -1.29749028967420
C           61.20350406117471        7.00951300263520       -1.36026233742985
C           60.61619860006130        7.73556314399356       -0.32798791868592
N           60.61340229707039        9.18650428005805       -0.38820385275742
O           61.13397800802764        9.70597382370100       -1.34192901413486
O           60.09008865756363        9.78119656770537        0.51892717162277
C           60.03082938427500        7.09528714864393        0.76061897994834
C           60.03208192203171        5.71325321851540        0.81070882466610
C           59.37259233367118        2.84705647879198       -0.14439683914591
C           58.10511309004799        3.51288070426269       -0.25051494716186
C           57.14724210386829        2.55233544819298       -0.20961077467285
C           57.82253645966124        1.29539214752701       -0.08834345570435
N           59.16794654016223        1.49644796354960       -0.05588787748017
H           56.07007462387121       -2.56726744913596        0.25731383591390
H           57.95446928188229       -4.47769656428927        0.32471970656971
H           61.65235163992637       -4.98062960311981        2.01292682052489
H           61.64520514662672       -7.46222275965245        2.09256814678551
H           59.53173981574235       -7.57856435184400       -1.63303635332536
H           59.54574550087688       -5.09724627290047       -1.72014126721098
H           63.24903386232132       -4.50108427809339       -0.06122594412820
H           65.14049480327620       -2.59725819751132       -0.12204192514971
H           65.15138374052576        2.66845964324428        0.02179509248562
H           63.26684254162116        4.57942929172673       -0.03436476587306
H           61.64760866172924        5.05084915906323       -2.10058617927455
H           61.64908588228823        7.53183288166468       -2.19830727425466
H           59.58432302506300        7.68354663577859        1.55324874958571
H           59.58953452514474        5.20286074682806        1.65817819304426
H           57.96850149731372        4.57664250984347       -0.35815160693317
H           56.07739365012709        2.67389724599208       -0.26472269497659
Cu          76.66484232119269        0.00031966670929       -0.01567617195124
C           73.22610064189921        0.01171341548148       -0.02588351485744
C           73.87146367452402       -1.23574262932281        0.05395922647042
C           73.19023616626870       -2.48912743923903        0.17880668378431
C           74.14313278196721       -3.45495819000519        0.21242425816929
C           75.41343063137727       -2.79594445881627        0.09867094353857
N           75.21552133595661       -1.44401742850643        0.01368598526328
C           76.65337171652803       -3.43961098798585        0.09889577860316
C           76.64932229291929       -4.92125100117270        0.14810005449886
C           77.24513990266284       -5.59331133516031        1.21973347660265
C           77.24459847338524       -6.97527133925676        1.27095849091106
C           76.64752641664538       -7.69252585638674        0.23813417892605
N           76.64870524217163       -9.14396742642904        0.28420744885824
O           76.11641858058013       -9.73108342223320       -0.62267085339000
O           77.17992399620968       -9.67142510694093        1.22761686782700
C           76.05030346569383       -7.04296284032334       -0.83846873990991
C           76.05149198095600       -5.66054103749934       -0.87705920962020
C           77.89769930855370       -2.80567396518523        0.05688346367950
C           79.16359802056283       -3.47930854003759       -0.01230591716922
C           80.12302558625419       -2.51983647011796       -0.04107217509909
N           78.10465920017586       -1.45255971177009        0.05279005549752
C           79.45018233276512       -1.25646457938089        0.00034244562759
C           80.10365515158320       -0.01093011971578       -0.00065812947632
C           79.45816562473189        1.23881778117408       -0.00911269523438
C           80.13879221940371        2.49796336407147        0.03429176881591
C           79.18595560339097        3.46352288654989       -0.00690768005845
C           77.91638357870096        2.79784532479557       -0.08468342186135
N           78.11446348073655        1.44345888325290       -0.07397625898359
C           76.67673202669769        3.43998960172082       -0.13849082232333
C           76.68390513418881        4.92133179252461       -0.19619801607425
C           77.29116453631748        5.58180676487941       -1.26864067208648
C           77.30130561707858        6.96333562664623       -1.32905000317483
C           76.70339134920879        7.69185621358936       -0.30462274293523
N           76.71465176745501        9.14290725824650       -0.36094168952745
O           77.25702467051507        9.66005081624401       -1.30373755791059
O           76.18298497192136        9.74002456521678        0.53968342852834
C           76.09537817816359        7.05393629857291        0.77289307654073
C           76.08590959739492        5.67180233211066        0.82065338674166
C           75.43246720024364        2.80481709825018       -0.14329394704822
C           74.16715727276420        3.47195927702342       -0.26496075117477
C           73.20770522552212        2.51255264214486       -0.23368449767915
C           73.87998316670125        1.25492607756698       -0.10295080757206
N           75.22514936837050        1.45440360999146       -0.05623947664421
H           72.12013803930476       -2.60500605410646        0.24082170000399
H           74.00164051534260       -4.51809270952553        0.32007928152758
H           77.69676926026185       -5.02301095159230        2.02306906510454
H           77.69867573154610       -7.50466790499983        2.09995173739807
H           75.59571428256763       -7.62448077461709       -1.63147833293259
H           75.60073262830491       -5.14304830156243       -1.71584986147991
H           79.29807525931952       -4.54811249116625       -0.04993200034809
H           81.19236599200437       -2.64667360976500       -0.09417960961676
H           81.20838875437620        2.61822819249665        0.09651829778045
H           79.32704631728383        4.53157508556562        0.02780251914253
H           77.74331824502012        5.00276088177702       -2.06540409496233
H           77.76421848804387        7.48378343644921       -2.15882164301422
H           75.64061588429766        7.64411620116877        1.55938144794392
H           75.62647371238637        5.16331619265868        1.66024083409447
H           74.03321555522801        4.53578052794377       -0.37545198628983
H           72.13870292312515        2.63540458821710       -0.30095559127004
