128
 energy: -255.159347142613 gnorm: 0.000534151902 xtb: 6.5.1 (b24c23e)
Cu          15.98349287779009        0.05876325332248       -0.00816529758186
C           12.58149865838076        0.09539236719445       -0.17443851971657
C           13.21594903810965        1.32696688745922       -0.11301491795402
C           12.54021731960403        2.59241216174924       -0.07638081405431
C           13.49779608032081        3.54950939199769       -0.00129799830633
C           14.76899188452623        2.87738510800537       -0.00079092710022
N           14.56582597954589        1.52853929191406       -0.06112191536731
C           16.01251798818940        3.50872813392925        0.07706370958621
C           16.02720559162884        4.99371083293950        0.11963495204291
C           15.53285700493510        5.73133598773486       -0.95597782315763
C           15.55283347057926        7.12070070903070       -0.91622747980460
O           15.08302912663245        7.84777656938547       -1.95953085232531
C           16.06085189423788        7.77705328830008        0.20589617833980
O           16.06465244273612        9.14761147785077        0.21838925219447
C           16.55034844044596        7.04026280346385        1.28122842711203
O           17.02876197216291        7.75390249431467        2.34889300314084
C           16.53924906688697        5.65152700048032        1.24107170881604
C           17.24404077653624        2.85174650509233        0.11797640808187
C           18.52274139313980        3.50384786576105        0.14128478128235
C           19.46720640420686        2.52924646145017        0.16213949699059
N           17.43107256938623        1.49455037304878        0.11273447647565
C           18.77402888024146        1.27645946478938        0.14402233113671
C           19.40871701523481        0.02194865845156        0.14249653914135
C           18.75080449486446       -1.21943825431452        0.09444182729769
C           19.41925112151155       -2.48578124957419        0.06932406554031
C           18.45623262016950       -3.43988184619437        0.00620125844174
C           17.19082651056426       -2.76183747258732       -0.00136116877536
N           17.40412719305095       -1.40935297665321        0.04742466117458
C           15.94739571360283       -3.39111420494698       -0.08191488769783
C           15.93181645875376       -4.87668930918968       -0.11297420871410
C           16.40304163730184       -5.60505296396076        0.97906727065498
C           16.38378818695569       -6.99470455510866        0.95065236637952
O           16.83117868302901       -7.71298887906546        2.00982522218408
C           15.90045888582601       -7.66039369720959       -0.17683668487148
O           15.89774999506534       -9.03111297094874       -0.17850711902770
C           15.43438956394920       -6.93266020483435       -1.26856324339771
O           14.97988053824917       -7.65541024025322       -2.34077608465205
C           15.44359588521433       -5.54356446121730       -1.23949585880420
C           14.71675814223304       -2.73247530054313       -0.13753624180793
C           13.43349753966916       -3.37955318499465       -0.17790924749228
C           12.49401836606227       -2.40184437013224       -0.20797227790728
C           13.19330806855102       -1.14934295033533       -0.17755308591978
N           14.53893147867957       -1.37874917064034       -0.13220774197769
H           11.49699514949443        0.10610250716902       -0.21198059997840
H           11.46904053152398        2.71754669853400       -0.09873220429293
H           13.36237156660119        4.61735611174233        0.05937514241957
H           15.14916647628044        5.23247435475549       -1.83655240079183
H           15.18445955819879        8.78964538749224       -1.74431201229032
H           16.44737452291135        9.43701448776436        1.06188205043079
H           17.34942783509970        7.16161952247612        3.04160739380709
H           16.91083991512343        5.08418388889215        2.08634211499155
H           18.67555694143335        4.57091651682185        0.12767229133990
H           20.53973411420683        2.63940865308044        0.18091061882360
H           20.48922508474157       -2.61776807398509        0.09175595446937
H           18.58728259966628       -4.50870616145461       -0.04298190199437
H           16.76938804174976       -5.09847472963204        1.86262086641288
H           16.73558083284743       -8.65663375375587        1.79982642224041
H           15.53569986842975       -9.32736017793884       -1.02870514193036
H           14.68230571637995       -7.06890268469600       -3.04852605092652
H           15.09019024071124       -4.98326745197502       -2.09720223640717
H           13.27781635724515       -4.44647330588270       -0.17056854907880
H           11.42077537101678       -2.50559654125619       -0.24011427418919
Cu          29.43850125126906       -0.05676547865095       -0.01411743093442
C           32.83816846015581       -0.07125269587836       -0.21328336772635
C           32.20443496393666       -1.30274478044750       -0.28260108350005
C           32.88107980062281       -2.56364558386877       -0.38932104399882
C           31.92465153016715       -3.52456825410089       -0.41078273472703
C           30.65299785486845       -2.85826005700159       -0.32874243988139
N           30.85507454995829       -1.51060002283743       -0.24267523029502
C           29.41001325300622       -3.49571533888618       -0.31512979517074
C           29.39555836820217       -4.97582505159820       -0.43937702639731
C           29.89878353151341       -5.58834740118120       -1.58715844449706
C           29.87950760081574       -6.97331217270831       -1.70408937522484
O           30.35907396201557       -7.57844972088850       -2.81841980937847
C           29.36180717094515       -7.75160988922860       -0.66762058074233
O           29.35808007520608       -9.11479093273901       -0.80975583856714
C           28.86259497065975       -7.14015134479214        0.47945301061092
O           28.37424310970894       -7.96914498459041        1.45534661032108
C           28.87440066333543       -5.75578924316058        0.59645085153004
C           28.17855145810589       -2.84760745884269       -0.19693825537004
C           26.89962514702658       -3.49786949241425       -0.24631848214605
C           25.95540072760564       -2.53168136052471       -0.11515851771918
N           27.99178277476998       -1.49851064878670       -0.04843739799167
C           26.64886379848668       -1.28509799938988        0.00823617548044
C           26.01458443245411       -0.03844950763995        0.15025610334243
C           26.67260721228143        1.20000023005790        0.24701063482402
C           26.00378365429450        2.46000363447420        0.37351670999409
C           26.96629705804749        3.41559374053539        0.41889249977770
C           28.23191988668141        2.74415071145636        0.32623273296122
N           28.01905719438301        1.39500963816780        0.21764564854510
C           29.47481831088545        3.37977138377471        0.30987225771517
C           29.49005228275310        4.85898876824037        0.44855709197866
C           29.01586947707898        5.45900787778765        1.61501606367639
C           29.03330202310359        6.84297995354813        1.74382628113543
O           28.58163762585253        7.43654661694951        2.87593639918679
C           29.51930583603182        7.63244563484951        0.70042994392716
O           29.52079794828594        8.99448954720238        0.85416264257799
C           29.98908234633453        7.03321531587235       -0.46530207244635
O           30.44672348277381        7.87272918823390       -1.44732473217803
C           29.98015331526350        5.64981161725746       -0.59398900096470
C           30.70475867151750        2.73262069782103        0.16743221785149
C           31.98806844275986        3.38063321524269        0.18876270204762
C           32.92651236735824        2.41351535512611        0.03568178101977
C           32.22681923227972        1.16541488609032       -0.06999984727873
N           30.88187881729999        1.38731869913970        0.01539579137285
H           33.92223152366812       -0.07667049195409       -0.26282113926043
H           33.95211244790065       -2.68417437681204       -0.43324346067633
H           32.06167356106978       -4.59246548802403       -0.46624657034541
H           30.28881130775626       -4.99399179769973       -2.40331381573083
H           30.25663136842043       -8.53854128667907       -2.71147238477609
H           28.96728448254407       -9.49715405225727       -0.00796957628036
H           28.04492891089993       -7.45836214240272        2.20644596433970
H           28.49618070065853       -5.28738487084632        1.49756627142039
H           26.74603718618959       -4.55639371448419       -0.38073637904923
H           24.88288218387741       -2.64320092925788       -0.10826473174981
H           24.93388601676985        2.58762572033324        0.41607591810065
H           26.83429045882074        4.48264223683102        0.49592979461674
H           28.64851871403034        4.85567746393702        2.43512911448085
H           28.67617830946324        8.39799723699578        2.77404017610430
H           29.88762565533389        9.38545612511645        0.04530994095295
H           30.74799072479032        7.37001321588528       -2.21544292119116
H           30.33509519714624        5.19079746969543       -1.50932190095420
H           32.14503808052992        4.43951800961772        0.31806963601484
H           33.99940339553877        2.52097054898510        0.00388891362962
C           22.03649351716456       -0.00974781195994        0.19065037017728
C           20.81495994796454        0.00870950035714        0.17329863454735
C           23.38670024624890       -0.02012920046624        0.19126250131990
C           24.60826774066926       -0.02817172965801        0.17869597888494
