128
 energy: -219.037647014192 gnorm: 0.000441309582 xtb: 6.5.1 (b24c23e)
Fe          12.83872987208793        0.04416216743923        0.03701408663698
C            9.45628224358645        0.12698292959455        0.08814287997175
C           10.11462003521573        1.13312736806535       -0.58925007971113
C            9.45095792983681        2.19394757876295       -1.28405589282453
C           10.41604122415358        3.04883402204221       -1.69964501980673
C           11.66740157560150        2.51546458385908       -1.24504633273217
N           11.47304210589951        1.31501270612811       -0.61732078700451
C           12.88949860722345        3.17093701999384       -1.37253978555933
C           12.91274080126560        4.52948444919979       -1.95602617326141
C           13.68236958944197        4.80459720714618       -3.08993828643464
C           13.70740777109212        6.07315227446068       -3.64019801491413
C           12.96308302159713        7.10417457700362       -3.06004855918953
N           13.02631232957290        8.38544153218334       -3.57601155617422
C           12.20133901746662        6.84080419847417       -1.91817577200628
C           12.17208449262731        5.56627789009139       -1.38172388956080
C           14.08873280693618        2.59839386971268       -0.96642741203260
C           15.35510678890016        3.26613314247585       -1.01401492160218
C           16.29235280227918        2.35471869594586       -0.65568120516562
N           14.25048863518593        1.30476343673111       -0.53145127187086
C           15.59506645413000        1.13912246154602       -0.37793253913937
C           16.23887712510042       -0.06943074694285       -0.08253774719515
C           15.54312411197363       -1.23952363028440        0.24574208969686
C           16.18492293318568       -2.48989521458526        0.50231876507757
C           15.21572991718901       -3.34764807945046        0.90523492867075
C           13.98630347056807       -2.61219641604844        0.90672310142877
N           14.19761225882547       -1.33447454329205        0.44564904177007
C           12.77790083148852       -3.11444669811768        1.37377617850314
C           12.75038120587485       -4.47005222587496        1.96421641423904
C           13.55179297641836       -4.78620155104156        3.06474684910212
C           13.52575881158298       -6.05217134571092        3.62120957886610
C           12.70557784268751       -7.04253930111095        3.07354954357133
N           12.64972460506758       -8.29874992933103        3.64882104932146
C           11.89825948634548       -6.73375180388682        1.97515174142285
C           11.92090590939717       -5.46164685918510        1.43285720658010
C           11.59085697869053       -2.38893343739965        1.30733727088050
C           10.33760585976229       -2.84456358083966        1.83524449437765
C            9.40322019602153       -1.93480511339633        1.46865340199852
C           10.08875286488065       -0.91792272917845        0.73083917368200
N           11.43151226898173       -1.18712002078802        0.67315687669751
H            8.37292804246119        0.16059271851031        0.11882006499208
H            8.38362580605489        2.26029411185594       -1.42440026437213
H           10.30222455868092        3.95816270463037       -2.26732891237309
H           14.24843829177238        4.00580278212881       -3.55643496356467
H           14.30193318641446        6.27188218293332       -4.52520404367174
H           13.31042323406017        8.44644557003423       -4.54046178661057
H           12.25156316303334        8.98337496956481       -3.33760346162434
H           11.63384745863972        7.64040360058794       -1.45469263273428
H           11.58774261745358        5.37330562819157       -0.48870966547276
H           15.49930419231871        4.30111560895638       -1.27793667095644
H           17.36034935845689        2.48119630071454       -0.57968541411366
H           17.24100637895810       -2.67291963047436        0.38520257531599
H           15.31556793161578       -4.38671886427250        1.17376498094743
H           14.18362304841327       -4.02071034582692        3.50174239892647
H           14.14226580752980       -6.28137897981705        4.48351798283053
H           13.45492970466842       -8.55598458922791        4.19671125755632
H           12.31297363178240       -9.03209901120104        3.04590719231095
H           11.25757322926727       -7.49730274287244        1.54764422920640
H           11.30586045524694       -5.23560400676133        0.56868220374969
H           10.20242366057175       -3.74253630457487        2.41611197636959
H            8.34403233977716       -1.93503059458321        1.67212009010421
Fe          31.36778665174728        0.00424116738728        0.05410471780818
C           34.74919437473093        0.02598350137307        0.16429783416421
C           34.09734064502985       -1.09931562456912        0.62626160416695
C           34.76746794442795       -2.26046430064907        1.12741330026433
C           33.80654518159517       -3.08659866675699        1.60603580636962
C           32.55119649486273       -2.42106917984040        1.41033259461982
N           32.73935923869996       -1.23290650140254        0.75779750966038
C           31.33143048914817       -2.89588964149685        1.88606509926032
C           31.31541381630230       -4.13217327661520        2.69717151839423
C           30.55075123169993       -5.23369156948838        2.30265288433432
C           30.53583037638357       -6.39375212399243        3.05552843094048
C           31.28562597291488       -6.47606753362976        4.23218582617426
N           31.23406642854584       -7.61555227492414        5.01383978129318
C           32.04118621028472       -5.37389383722737        4.64182852031598
C           32.06019416462363       -4.22203048831945        3.87646404715446
C           30.12916415852808       -2.24652033107824        1.63342562925684
C           28.86507804736614       -2.65827996880262        2.16667331185186
C           27.92426734564749       -1.85968521584334        1.60566863588864
N           29.96234725790003       -1.17139582493615        0.79375407613609
C           28.61697847676185       -0.95643948654389        0.74231639252563
C           27.96881256389623       -0.04881981527740       -0.10525481474615
C           28.66023831562851        0.86824973318293       -0.90659242529814
C           28.01462596856566        1.76206599714675       -1.81524321028394
C           28.98026199690577        2.57134396429072       -2.31510170119306
C           30.21124310700692        2.17812439210230       -1.69652507284944
N           30.00473447505595        1.09370970752503       -0.87695420569153
C           31.41559460722582        2.85164719810503       -1.85855376617056
C           31.43882838154639        4.08586263689084       -2.67291302865778
C           30.62667961498017        5.17498626519500       -2.34487929548372
C           30.64971461449771        6.33134045255854       -3.10341658124079
C           31.48691396980439        6.42221052046897       -4.21891833136114
N           31.47468524984768        7.55642725491262       -5.00984008508770
C           32.29303519032796        5.33297331805141       -4.56127724397352
C           32.27314840483771        4.18515742033848       -3.78993684658684
C           32.60340208828589        2.40845254045449       -1.28143694597198
C           33.85149756973489        3.10970462039308       -1.36648961162090
C           34.78911042682267        2.31269827767380       -0.79983672797340
C           34.11063649810134        1.13277084284491       -0.35748442318310
N           32.76857825456435        1.22137945021585       -0.62181857500949
H           35.83225353890708        0.04127573258959        0.21413913939366
H           35.83587953110658       -2.40684312354325        1.10819078442584
H           33.92588955778836       -4.06212919110880        2.04896778170605
H           29.98081471271409       -5.18440340065106        1.38131459521015
H           29.94542684417939       -7.24477290192034        2.73398859600507
H           30.95456307694147       -8.45455787393505        4.53155524877585
H           32.01294811616800       -7.74240230450232        5.63983484626694
H           32.61237263562531       -5.42619952446572        5.56227202486390
H           32.64007289368698       -3.36745641874782        4.20753666709738
H           28.72484031423560       -3.44940002899460        2.88510239939598
H           26.85656332826997       -1.86917912269654        1.75515176122500
H           26.95866718417958        1.75863089139914       -2.03300279805786
H           28.87706412898567        3.36167270550908       -3.04060741348535
H           29.98816687627929        5.11976391274956       -1.47000573421608
H           30.02112732459287        7.17291000497241       -2.83350201387029
H           31.14265359748205        8.39241838092146       -4.55644299741531
H           32.29750545520069        7.69536765997732       -5.57404063305423
H           32.93415086643978        5.39220880425719       -5.43402582986791
H           32.89383783442683        3.34057148766628       -4.06848651926363
H           33.98134972846450        4.08834966589135       -1.79956743871270
H           35.84620455141107        2.49175897616345       -0.68234602618890
C           17.63844703923034       -0.10419870136575       -0.11396221972173
C           18.86441828221235       -0.11849346357884       -0.14094143242675
C           20.20399555709393       -0.12488289478527       -0.16487211826412
C           21.43628978989734       -0.11814140082719       -0.18257883584460
C           22.77127039958483       -0.10616644100278       -0.19036776216496
C           24.00365754000328       -0.08985687800850       -0.18795690867369
C           25.34328378725980       -0.07450583756124       -0.17303366751538
C           26.56914784740773       -0.05971330734519       -0.14797768681008
