120
 energy: -215.506439298022 gnorm: 0.000448403947 xtb: 6.5.1 (b24c23e)
Co          15.59685057053806       -0.05984603335412       -0.07479518125101
C           12.23529265045295       -0.09478555716205       -0.38715163071134
C           12.91391682772470       -1.28888699746594       -0.49624096934558
C           12.26490008609292       -2.54984185639951       -0.68864107761692
C           13.20651842360262       -3.50294299991735       -0.49681131072789
C           14.43658795065850       -2.82237594044054       -0.21550466920847
N           14.25454881441233       -1.46372122151055       -0.25678122252041
C           15.61055229669368       -3.46103961246637        0.16354033530389
C           15.60886606134326       -4.93577312850286        0.32201790699020
C           15.39407625060219       -5.76823563178148       -0.77609824219126
C           15.38853029752077       -7.14680955970295       -0.62807691899963
C           15.59360706289453       -7.70758849159809        0.63032211537926
O           15.59004764115205       -9.05201474906890        0.82131832386282
C           15.81055997256157       -6.88598987587571        1.73500566980596
C           15.82124314134232       -5.51141035416651        1.57646733353603
C           16.79070429598517       -2.76466870061923        0.37363010095322
C           18.04334192025730       -3.39418145974547        0.66693805932218
C           18.99664152253343       -2.43789520636636        0.55968245313286
N           16.97460062236041       -1.42061210176293        0.13490146282769
C           18.32409465035976       -1.22653410998768        0.21262726413347
C           18.99235338755307       -0.03774616427116       -0.09297724891852
C           18.30603039455962        1.15471416743824       -0.33389689543016
C           18.95996031365967        2.39395355455248       -0.61177909345427
C           18.00160848200388        3.35137017822867       -0.58982129340725
C           16.76454447335518        2.69137000066599       -0.30049903629054
N           16.95706704842990        1.33219766033439       -0.20284231611944
C           15.56288076685575        3.35200685734171       -0.08996185703186
C           15.55172998362586        4.83242087252380       -0.07540396101666
C           16.31958893921817        5.54088892106169        0.85240039761209
C           16.31293504014262        6.92418148955103        0.86843072247235
C           15.54007527236572        7.62294668489645       -0.05749583523385
O           15.56079118946034        8.97978625673393       -0.01739586852729
C           14.77422915779387        6.93027688405752       -0.99248450319579
C           14.78028158715528        5.54431367081877       -0.99503956416867
C           14.36721555360493        2.66256474440809        0.06615288385911
C           13.09562929748829        3.29354874648409        0.26669510509699
C           12.15514100787350        2.32755252408195        0.13967964584561
C           12.85500567219979        1.10406251871098       -0.10484066090934
N           14.21101978730446        1.30922815818339       -0.09615710143782
H           11.15637787319875       -0.10530069046266       -0.48822341104774
H           11.21599190294668       -2.66985551102752       -0.90865733159852
H           13.08728527212596       -4.57381734684210       -0.52511989513436
H           15.24720989602423       -5.33323210565927       -1.75838180491179
H           15.22636915646914       -7.79026768854048       -1.48617354652957
H           15.43323379065466       -9.52552046456907       -0.00666428361348
H           15.96698812367089       -7.33611992513882        2.70750918839434
H           15.97959804919345       -4.87143088883132        2.43721227797120
H           18.16860058343605       -4.43993297317579        0.89565938034298
H           20.06275487687185       -2.52968577352252        0.69139365248417
H           20.01829094657573        2.50217309732870       -0.78643824661347
H           18.11064921024182        4.41031720009377       -0.75842441405644
H           16.91293492570023        4.99754604201034        1.57924978970706
H           16.90056563949556        7.47609930574728        1.59156169856744
H           14.99474944418968        9.36138774952946       -0.70175738037085
H           14.17910999469613        7.47790270921184       -1.71541624302552
H           14.19572334475314        5.00692671566796       -1.73347832807871
H           12.95388066083724        4.34215871404229        0.47242914081352
H           11.08246620768121        2.41465544742346        0.20919675734650
Co          28.98699132078431        0.04947220151827       -0.07840802998053
C           32.34854520880432        0.03943723263608       -0.38975204348190
C           31.66957359468354        1.20406806781742       -0.67435326717435
C           32.31784643643098        2.42337506715779       -1.05023562052119
C           31.37568732949784        3.39380435503573       -1.00063022850966
C           30.14615760925473        2.76149179981309       -0.62138433143707
N           30.32866433115468        1.41140472951398       -0.46389011217965
C           28.97317321983536        3.44862444208418       -0.33535519398277
C           28.97530562138900        4.93073724429604       -0.39163954514311
C           29.18630481038092        5.59545222351100       -1.59937109080320
C           29.19274828716458        6.98092254067298       -1.65230527676797
C           28.99246239246233        7.71794645431488       -0.48749195159893
O           28.99735030839751        9.07583886885349       -0.49289790109762
C           28.77917607989000        7.06491134509130        0.72514074602236
C           28.76750885795622        5.68186254671529        0.76711171239507
C           27.79379937196517        2.79022684179975       -0.02304736111522
C           26.54192181855715        3.45540334374542        0.18119192534176
C           25.58823013827988        2.49393176370184        0.21213142160944
N           27.60918018248228        1.42602116402302       -0.06865867300200
C           26.25985124193278        1.24544209672136        0.03823658098013
C           25.59159399296922        0.02540674201472       -0.09700523600566
C           26.27815462662567       -1.18902586963645       -0.16701035306946
C           25.62427616920299       -2.45512721596669       -0.26724430967510
C           26.58232214447868       -3.39984288440104       -0.10842609287954
C           27.81918775180528       -2.70562491345790        0.08634788061376
N           27.62694201127777       -1.34633881844940       -0.01088098131556
C           29.02028159448795       -3.32946179793741        0.39157105321399
C           29.03107569287759       -4.79263843206619        0.61672372180891
C           28.25768594138987       -5.36251007802438        1.63141969475426
C           28.26322518106502       -6.72953093943704        1.84348006932445
C           29.04071051862450       -7.55252480529241        1.03036098663547
O           29.01847081172375       -8.88996505557682        1.26215708597212
C           29.81248610450187       -6.99933348929809        0.01110572362347
C           29.80735859096220       -5.62775828822621       -0.18808547284777
C           30.21568466022335       -2.62442153193009        0.45117092554801
C           31.48660105142687       -3.21924680243924        0.74478860592621
C           32.42750571294895       -2.28089333112024        0.48380311304520
C           31.72848431905603       -1.10583542501169        0.06301213008586
N           30.37248857981299       -1.30850996336619        0.09633258029923
H           33.42767762032688        0.03584641603714       -0.48894408082051
H           33.36664733372973        2.51031358164597       -1.28574830194265
H           31.49425543940309        4.44889273322685       -1.18643761712372
H           29.32942441697778        5.02279762097593       -2.50891379089009
H           29.35195043846592        7.49338266084892       -2.59501125914418
H           29.15096823488305        9.42453697774730       -1.38124916900198
H           28.62643875103394        7.65108256180078        1.62287408489742
H           28.61215387144107        5.17322499893310        1.71193100947828
H           26.41723127312799        4.52300385956358        0.26052898800407
H           24.52242153018304        2.60405554441845        0.33166957875564
H           24.56612987898624       -2.58678890161445       -0.42621813562092
H           26.47303918000367       -4.47196512413110       -0.12512451211556
H           27.66087642068092       -4.72166305341030        2.27073243152730
H           27.67110428146573       -7.17335929990733        2.63421000510049
H           29.58840462733321       -9.36478668001345        0.64239390304350
H           30.41134581361414       -7.64387629579646       -0.62342096340213
H           30.39634140417350       -5.20058593263150       -0.99208169066690
H           31.62780423076820       -4.22729338625908        1.09961233687856
H           33.49991737821231       -2.35650043922116        0.56910120890515
C           21.61757699501912       -0.01331335015950       -0.13502431992777
C           20.39527921977054       -0.03224821310527       -0.12023143572551
C           22.96628740121546        0.00111386871385       -0.13478467105666
C           24.18867933009547        0.01605067182081       -0.12183880676464
