122
 energy: -214.245087602544 gnorm: 0.000628418296 xtb: 6.5.1 (b24c23e)
Zn          17.10166000118359        0.06385410784538       -0.02408221220065
C           13.68849833644120        0.10532264211778       -0.08809001724359
C           14.32051507464926        1.33355584354489        0.06144851497046
C           13.64797920076719        2.59238215617524        0.22229981409397
C           14.60779261172316        3.53886237523032        0.37093253637398
C           15.87994763031535        2.86968108684305        0.29372830542569
N           15.67022277776496        1.53505047714867        0.10861034388618
C           17.13101397960361        3.48082664990740        0.44150511604851
C           17.14071408918599        4.95002745770442        0.64337043732122
C           17.64417397531502        5.50310962090788        1.82472859187071
C           17.64246522719321        6.87202522705893        2.01111768633843
C           17.14224178611880        7.72120122424686        1.01839640883914
C           17.14950329188361        9.17806817480758        1.24118136032363
O           17.56060693184535        9.70024154949601        2.24567655898628
C           16.64233776859933        7.17042444586416       -0.16416025763547
C           16.63929973549864        5.79923492524302       -0.34734368384339
C           18.36954795408646        2.82877881454383        0.41850043069323
C           19.64586814623271        3.47385533765985        0.55196254813545
C           20.59298619740508        2.50833241757477        0.44306686107370
N           18.56787250855589        1.48837512581598        0.22099864039235
C           19.91148190198444        1.26700691462524        0.22577434541216
C           20.54818149091009        0.02582219070153        0.01850503142318
C           19.88720898304921       -1.20113543818574       -0.19747362783373
C           20.54357612053368       -2.44805421987285       -0.45555151102923
C           19.57769946779289       -3.39297190091801       -0.58052186086457
C           18.31586987198100       -2.73118161582005       -0.40086639778628
N           18.53971353203360       -1.39771590464678       -0.18680191475741
C           17.06464436784853       -3.35622323322582       -0.46767760822569
C           17.05360638877493       -4.82901580503125       -0.63238574371250
C           16.44698778709375       -5.41615538640477       -1.74669313005560
C           16.42921148103621       -6.79171160988000       -1.89277581378725
C           17.01400707489351       -7.61045376851547       -0.92342478529513
C           16.99990708302343       -9.07849677032286       -1.05118408016121
O           17.48563202048998       -9.82629807672603       -0.24121496259815
C           17.62281830527550       -7.02393392634247        0.19132837934388
C           17.64513327312256       -5.65018021588433        0.33318559428844
C           15.82353946340238       -2.71285063393349       -0.38774382375868
C           14.53865171459600       -3.36102416932275       -0.41787687268519
C           13.59778520158675       -2.38913169252491       -0.32033701261396
C           14.29528885276127       -1.13804622966104       -0.21566749460093
N           15.64065767007197       -1.36828507652780       -0.25229533456826
H           12.60300665357627        0.11687386007298       -0.09197254303837
H           12.57711046068071        2.72205954880253        0.22812785664211
H           14.47048804217357        4.59593744074256        0.53317672559027
H           18.01980641277479        4.84737125799508        2.60209701239911
H           18.02524036119707        7.30813891525878        2.92758792036434
H           16.73690387095656        9.77020095784589        0.39634867597583
H           16.25554163916390        7.82191862524423       -0.94111463282538
H           16.26072939479616        5.37537351690669       -1.27076208614753
H           19.79883422967752        4.53060800601666        0.69981441058645
H           21.66195075055984        2.62395983770775        0.50537256922941
H           21.60888985248731       -2.57890271205479       -0.54437602096420
H           19.70683442716886       -4.44156807604392       -0.79468296242264
H           16.00346237324707       -4.78360384710976       -2.50748305877016
H           15.96010285505944       -7.23814862110525       -2.76366564439174
H           16.49452204360621       -9.45132036389856       -1.96769522548941
H           18.07224463637108       -7.66706626366111        0.94037970033175
H           18.10571073458584       -5.19932703863343        1.20507072417379
H           14.38035537739140       -4.42505025513053       -0.49075640430924
H           12.52471481189058       -2.49878686995416       -0.31020087982218
Zn          28.03612073483689       -0.05975519862715       -0.03287214027818
C           31.44927488075924       -0.09169403526539       -0.10228945153418
C           30.81725657429175       -1.32870516703285       -0.12915114183296
C           31.48979631089569       -2.59760703182668       -0.14918852813257
C           30.52998827747583       -3.55560971126208       -0.13679369353434
C           29.25783286567249       -2.88225714516816       -0.11790778665264
N           29.46754995683501       -1.53486479516114       -0.11111365372448
C           28.00677240822159       -3.50822457285848       -0.05865258795528
C           27.99707975251668       -4.99119808573748       -0.06806855611657
C           27.49357665516165       -5.70687989944352        1.02246502121955
C           27.49527354853693       -7.08838720101604        1.01200964092456
C           27.99553202766735       -7.78753473482331       -0.09150584311068
C           27.98839844166351       -9.26128307191119       -0.07842975035368
O           27.57728071939693       -9.92117603035732        0.84147177415726
C           28.49547050011882       -7.07396708057412       -1.18355741366690
C           28.49853147620066       -5.69066661160601       -1.16959996219453
C           26.76824205874957       -2.85954079410462        0.01142361668010
C           25.49191793679155       -3.51704594553243        0.05163549058948
C           24.54480709366512       -2.54584875533939        0.08128543478991
N           26.56993259006894       -1.50466788671450        0.00686366577716
C           25.22632792496237       -1.28623268644462        0.04308470089285
C           24.58960000365643       -0.02820413725543        0.01466962100061
C           25.25054349572087        1.21702798959093       -0.02435144702734
C           24.59419179249075        2.48798605884484       -0.10232971385572
C           25.56006950797221        3.44106673560647       -0.09140208892675
C           26.82190092239947        2.76044096790447       -0.00781079976830
N           26.59804374173466        1.41008581572939        0.01422670204687
C           28.07313120507532        3.38862975647959        0.01507384817384
C           28.08414420768662        4.86986478860517        0.06179098560094
C           28.69079890955129        5.60971680899047       -0.95751820964483
C           28.70849805014426        6.99205832742274       -0.90626045091388
C           28.12363819676100        7.66440679710776        0.16977615806426
C           28.13757387265251        9.13569013565687        0.25223782141795
O           27.65246300931964        9.76050531402616        1.16080471197940
C           27.51483101835536        6.92510457473127        1.18964508839425
C           27.49253986707540        5.54514904729291        1.13442727726564
C           29.31424173071129        2.74043459876790        0.00256049108721
C           30.59913354668600        3.38628741731216        0.06503710737131
C           31.53999864355227        2.41040847131372        0.02311392470499
C           30.84249039833574        1.15717175605462       -0.05145783775379
N           29.49712223722139        1.39028427508140       -0.05487459880734
H           32.53476583045602       -0.10257689048358       -0.10784115841674
H           32.56066435120012       -2.72679346070655       -0.16190718519079
H           30.66729986842534       -4.62501498872848       -0.12669626351429
H           27.11788910226864       -5.16852650020829        1.88527289892729
H           27.11244230283117       -7.65056685796034        1.85701615503050
H           28.40059884428452       -9.72705693092580       -0.99915107472575
H           28.88229985462010       -7.60818267993156       -2.04535183193953
H           28.87712924787731       -5.13962664926656       -2.02323359294633
H           25.33893996419522       -4.58408368039092        0.04748317215127
H           23.47583732497535       -2.66916294851736        0.12645897528089
H           23.52888476664126        2.63014760465645       -0.17165309616681
H           25.43093957685079        4.50947249053592       -0.15404728550748
H           29.13443366084226        5.09195392487832       -1.80057963998651
H           29.17761874428621        7.55796695774146       -1.70469057601875
H           28.64284933034171        9.63519843150227       -0.60183874616072
H           27.06530823927032        7.45500776009951        2.02259628789208
H           27.03194447630432        4.97472707355485        1.93320553380947
H           30.75743618518765        4.44984339611913        0.14447218704064
H           32.61307078366371        2.51749922647569        0.04872213614466
C           21.95988800202827        0.01001949735287        0.01915075589467
C           23.17789324716059       -0.01306084536306        0.01672742459458
