460
 energy: -886.955191823487 gnorm: 0.000492225356 xtb: 6.5.1 (b24c23e)
C           91.07832994029377       -0.39999405279325        0.23433655977126
C           91.68082481948102       -1.15170709539880       -0.76603118077281
C           91.02367575307051       -1.95428501365691       -1.74062361040376
C           91.98020427479129       -2.51725787312905       -2.53745037197955
C           93.25425118579120       -2.09113681009089       -2.06419535454256
N           93.02163265322636       -1.26060733597221       -1.00454858176732
C           94.51591055168031       -2.43357050934842       -2.56289088118289
C           94.55201469425688       -3.35848600780741       -3.72291019383591
C           95.13147645218696       -2.93518463045347       -4.92244810322598
C           95.15910772409151       -3.79120959652084       -6.01601564065637
O           95.70082933629959       -3.44269024403818       -7.22537653887759
C           94.61902796901877       -5.07110414055180       -5.91868591553430
O           94.63594971725890       -5.93607234765259       -6.98114251493470
C           94.04533446588526       -5.49694276273772       -4.71957674007562
O           93.52724463606091       -6.74638252197093       -4.63357733838596
C           94.00856606383317       -4.63956440911421       -3.62591103537719
C           95.73028229702891       -1.97121856921404       -2.04847319131183
C           97.02969038874863       -2.42907350217313       -2.50663616349953
C           97.94883672733947       -1.77177642607854       -1.76930361041944
N           95.88223847080286       -1.06350029936500       -1.04587516751910
C           97.21018623311888       -0.91202327340720       -0.86489009516705
C           97.84357398464044       -0.02578239410024        0.02881213234594
C           97.20603740577080        0.84578784673337        0.93113596381429
C           97.84368532979956        1.79571922688674        1.77252314766341
C           96.87688714503284        2.42718331870236        2.50476065997419
C           95.61858997447315        1.86937957939077        2.14472202849684
N           95.86845972565216        0.93029139397100        1.17870405499918
C           94.35984628517116        2.19758513719224        2.65977298083130
C           94.31558015129973        3.22269521583062        3.73058945585667
C           95.01279691396179        3.02966913758334        4.92385683648924
C           94.96247275413882        3.99244650808334        5.92514242028178
O           95.63066593882945        3.81080737484593        7.09036242699427
C           94.21808933525163        5.15755807777388        5.73347809045951
O           94.18895441038715        6.08990107232082        6.73698918366233
C           93.52441308941806        5.35176160263558        4.54163290918149
O           92.81902220444583        6.52062546654923        4.42448662409475
C           93.56797903388750        4.38888260297535        3.54149575812208
C           93.15316104177020        1.62528993298326        2.24029195280310
C           91.86104951283274        1.90108417279669        2.84918857216777
C           90.95434201692836        1.16841328789577        2.17146757999876
C           91.69154868697676        0.44100324688398        1.15380535602832
N           93.01376829752027        0.73010163790278        1.23413125590092
H           89.99701270819658       -0.47615999784249        0.28981855619088
H           89.95426298444633       -2.06986939627903       -1.81699947178438
H           91.82262444854314       -3.16803308448443       -3.38209771221017
H           93.74953472162616       -0.79303776104877       -0.47461948230311
H           95.54194071214438       -1.93595420876105       -5.00861115782330
H           96.05350098246340       -2.54358061489086       -7.19749311793992
H           95.06768429286956       -5.48693403127565       -7.72525623559818
H           93.65096404839525       -7.18765736248649       -5.49016902957890
H           93.57675497479678       -4.98749384352984       -2.69641386227907
H           97.19425010159877       -3.16887292158752       -3.27335615454833
H           99.02376139510935       -1.84552571248484       -1.81261131060947
H           98.90688515402377        1.97221962849374        1.80029312963364
H           97.01979405801214        3.21449263541374        3.22667897336642
H           95.15052176702125        0.37824679775340        0.72099236572692
H           95.57682393655863        2.12151895932101        5.09312093862304
H           95.46829578964643        4.58190584376793        7.65850717370027
H           93.62689797233216        6.82534002149643        6.44531794962812
H           92.36473175265161        6.56386481866797        3.57285514599126
H           93.03813568599188        4.55406157392189        2.61072223762663
H           91.69643060588082        2.55369551466140        3.69152666028324
H           89.88883187338850        1.10074593240200        2.32630278075428
C          178.50108878384546       -0.17649559761951        0.31704629239255
C          177.89428752801433        0.62180674236380        1.27788766285105
C          178.54896729046825        1.39766220708734        2.27543784311803
C          177.58986724042944        2.03853521578644        3.00763106800258
C          176.31682090529264        1.66365205254776        2.49025906069850
N          176.55223392927303        0.81741149646382        1.44375595079238
C          175.05499647737113        2.07667249265959        2.93237193631256
C          175.02330718345931        2.99548721950078        4.09770276978365
C          174.45773182950072        4.26644048410162        3.96320213673978
C          174.43669013889942        5.13129304294615        5.05014177711626
O          173.90786925406780        6.39408310588900        4.99107094827763
C          174.97067627707705        4.73421286620769        6.27339899902341
O          174.96074441463259        5.56728215293014        7.36133990993316
C          175.53156011119557        3.46342965858228        6.41016157733035
O          176.04500322178626        3.08480718345247        7.60608495140393
C          175.56071237443714        2.59845178408403        5.32240829580511
C          173.84058606971072        1.68564640336956        2.36217839146177
C          172.54016647383722        2.05805645017962        2.88995864882649
C          171.62180396383761        1.48032402479238        2.08792412367280
N          173.68949308665233        0.88835791598530        1.26937499275668
C          172.36170593546458        0.75249709182257        1.07521056814002
C          171.72869891891531        0.02169601897706        0.05048991696146
C          172.36434044676065       -0.72386128308577       -0.95937178273394
C          171.72203993631771       -1.39717829330420       -2.03255905663184
C          172.68839111020600       -1.98067480287406       -2.80359867975746
C          173.95186627140245       -1.69448668166466       -2.21542242552082
N          173.70404856150455       -0.92463456713372       -1.10927495924938
C          175.21357651080820       -2.09382591969128       -2.66849708460895
C          175.25498938333300       -2.93244471341244       -3.89146476578687
C          174.60923758840457       -4.16877434094691       -3.92465514535380
C          174.65206171324297       -4.94747412182917       -5.07535296103021
O          174.03354341976404       -6.15266200409242       -5.11526232642717
C          175.33648210152140       -4.48764067206194       -6.20165559903272
O          175.35796933036227       -5.27476347565192       -7.32287690675644
C          175.97921191823923       -3.25269234112453       -6.16923852002668
O          176.62687496302425       -2.86637563356652       -7.31336779235381
C          175.94404275687336       -2.47531134699269       -5.01863542929084
C          176.42505939091305       -1.75806107682738       -2.05343845715127
C          177.72432343419612       -2.25321705649032       -2.48109331732757
C          178.63301653772072       -1.71950470200816       -1.63989001801892
C          177.89003038811578       -0.90342192614923       -0.69626053840749
N          176.56329287803450       -0.95839992093547       -0.96965753027477
H          179.58422381059751       -0.22640965024779        0.36685380606330
H          179.61847655922764        1.45567387134281        2.40048439581659
H          177.74509115818438        2.71682389845195        3.83080477006085
H          175.82551616385740        0.39887437156318        0.87281348707243
H          174.05327143306567        4.58728075697570        3.01041763727456
H          173.55665208912285        6.57831277529197        4.11003053459074
H          174.53677479839178        6.39909817121327        7.09655144946604
H          175.92782030492930        3.81686220076044        8.23385102866531
H          175.98299806337087        1.60946531863559        5.44531358435913
H          172.37367528342165        2.66299582422550        3.76662513162955
H          170.54651392384068        1.52084548176556        2.15811876115409
H          170.65599333972102       -1.41757834976867       -2.19175994652583
H          172.54201482378599       -2.55279465362787       -3.70505636939742
H          174.42529796443569       -0.55506312664388       -0.49864405696206
H          174.09090426903649       -4.54463666934439       -3.05199139270717
H          174.17800078341864       -6.54117701343706       -5.99385511260332
H          175.87286011066863       -4.81203578468064       -8.00300573971841
H          177.04538942366909       -2.00344076502664       -7.19637152069997
H          176.43350121120736       -1.50854086849343       -5.00578121354324
H          177.89217513978252       -2.93081650285461       -3.30283018992828
H          179.70362734408349       -1.85206030199018       -1.62951354336129
C          100.47273486097768        0.02021973048737        0.01971136117981
C           99.25097479372002        0.00648212746400        0.02046746768792
C          101.82333634340743        0.02559116221941        0.01288005780505
C          103.04518979709999        0.02304946811115        0.00964368410506
C          113.92977661670278        0.02015170554123        0.02804720647656
C          112.70703060674761        0.04037784896489        0.02738566320750
C          115.27795747889100        0.00107184517595        0.02596503082304
C          116.50071678276879       -0.01866882172325        0.02038248667787
C          127.38484684153963        0.01199018146856        0.05074124629995
C          126.16186930278668        0.01568217966458        0.04481747821364
C          128.73301982268080        0.00571669832010        0.05250482027603
C          129.95602522761459        0.00291467018721        0.05123379376392
C          140.84045635683836        0.01892577786993        0.01106317731874
C          139.61751287298858        0.02978870108876        0.01894041276276
C          142.18854305050291        0.00667805699979        0.00033375927625
C          143.41143806953482       -0.00492000805180       -0.01111000576040
C          154.29592709228555        0.02366304998409       -0.08117985653487
C          153.07302071727793        0.02459724761708       -0.07277547844254
C          155.64420414641677        0.01906468824234       -0.08810465118160
C          156.86711326848118        0.01668575527469       -0.09415107553317
C          167.74883380724546        0.03359726872894       -0.03889092668134
C          166.52729311553307        0.02700349809008       -0.06077924434575
C          169.09949595323499        0.03321517603813       -0.01258368830404
C          170.32085768747766        0.03428094487508        0.01672486039125
C          104.45222030946329        0.02428930513872        0.00810274331456
C          105.07826007929073       -1.23562878733613       -0.04027518986631
C          104.42833533336930       -2.49671062390578       -0.04841282427797
C          105.39233062686530       -3.46662715183746       -0.09825294014960
C          106.65971852715846       -2.82431646916907       -0.13238584566647
N          106.41912410846774       -1.47698906744774       -0.08724358198843
C          107.91998898393179       -3.43384826459132       -0.18199464234997
C          107.93820095562783       -4.91577157445848       -0.25723777089360
C          108.55538909005929       -5.66185294382547        0.74758862843447
C          108.58325439930627       -7.05263931039887        0.69350551263318
O          109.17387185940626       -7.78932543836027        1.66996520788219
C          107.99276036011510       -7.71665592012791       -0.38674341569694
O          108.00928103730168       -9.07191001704740       -0.47189857488247
C          107.37898063622026       -6.96249544969330       -1.39040241976458
O          106.82426274529031       -7.67409167733517       -2.42284476985234
C          107.34131904116562       -5.57621773430360       -1.33285959873739
C          109.14340329997148       -2.76190379131592       -0.16628069926034
C          110.43083929839764       -3.42161991602120       -0.28889182534936
C          111.36577390232721       -2.45071939598397       -0.22872979569190
N          109.31768335715785       -1.41529599141334       -0.05592406602624
C          110.64802941524972       -1.20031317710072       -0.08039143677623
C          111.30268091172621        0.04448999693449        0.02316380854721
C          110.67609545462494        1.30206939475003        0.11965654792801
C          111.32536951461529        2.55686513425292        0.25033709244324
C          110.36134174064372        3.52661011915289        0.29791847637677
C          109.09428908064126        2.89144750557252        0.18865972944459
N          109.33571950204221        1.54647296310799        0.09333658747845
C          107.83460419092889        3.50239914198366        0.19597763506805
C          107.81535032056573        4.98516420697282        0.27089017264747
C          108.41036372568099        5.74629373597260       -0.73558101677178
C          108.37833887067384        7.13450656193229       -0.67137390717177
O          108.94418654686348        7.88292177936997       -1.64933119184252
C          107.75771195439611        7.76669971764954        0.40726905431989
O          107.74278506568962        9.13614704503574        0.44448379806285
C          107.16982480197201        7.00663350855776        1.41530360191955
O          106.58438527337164        7.69733498937536        2.44352420860171
C          107.19340742772638        5.61914890285129        1.35005704870737
C          106.61042881471643        2.83274767805611        0.13594443864527
C          105.32301004643023        3.50226101223421        0.08276427183044
C          104.38771312492104        2.53089658182378        0.03836121199377
C          105.10494684292313        1.27162011764007        0.05131814120786
N          106.43637285735372        1.48317645361870        0.10156724057891
H          103.35987582112425       -2.63557368189890       -0.01235007257339
H          105.24011934838423       -4.53359088640534       -0.09995801407005
H          107.14166833584055       -0.76482818212272       -0.07734219976611
H          109.00538710917884       -5.15766869480971        1.59535883141368
H          109.54713086191678       -7.22236469187201        2.35755410943603
H          107.55299119331204       -9.33057401057301       -1.28881696240727
H          106.42701013293744       -7.08257328229189       -3.07503151817462
H          106.87354586724327       -5.01431222814433       -2.13278991430423
H          110.57849371125789       -4.48134735229112       -0.41954155803178
H          112.43833941246029       -2.54510734281147       -0.28675322974800
H          112.39367709423985        2.69086059594009        0.30526459240584
H          110.51240860975658        4.58808712271381        0.40707121588793
H          108.61388625594807        0.83748142372565        0.01892029945345
H          108.87879271533559        5.26742367092854       -1.58575026119337
H          108.81378115013318        8.82041053703354       -1.43053288837169
H          107.27205351883690        9.40826007615297        1.24836564332076
H          106.19583662505399        7.09112961779426        3.08782338105747
H          106.74456311043252        5.03393488270633        2.14398406863449
H          105.17537403732764        4.56992065700218        0.06541108822406
H          103.31518870351870        2.63082798690581       -0.01090899781112
C          117.90488817619581       -0.02016805611044        0.01683712725892
C          118.53425806699096       -1.28051279960504        0.01454410326414
C          117.88806797407021       -2.54255214401459        0.04895547229158
C          118.85469718514450       -3.51113662986359        0.01657522423848
C          120.11956778935219       -2.86674265766772       -0.04834113477332
N          119.87508158528492       -1.51913944508608       -0.03641725351390
C          121.38115832050568       -3.47397189052556       -0.09969897177116
C          121.40244368448661       -4.95678073215307       -0.14920050073719
C          122.03842638032138       -5.68409391989330        0.85777822024179
C          122.07068115435845       -7.07545829914845        0.82616191963769
O          122.67978671610896       -7.79381926199055        1.80493170428010
C          121.46553972342791       -7.75941121361583       -0.23336652699637
O          121.48622486809172       -9.11566226019859       -0.29647092607723
C          120.83272493698450       -7.02410970160098       -1.23930648150580
O          120.26456878842720       -7.75476620206438       -2.25070681280296
C          120.79059850253296       -5.63724215526067       -1.20388342155350
C          122.60325397080213       -2.79910699690664       -0.10840336312970
C          123.89121782243531       -3.45752451715148       -0.23241879744597
C          124.82467419496412       -2.48410588681141       -0.18991307838405
N          122.77556795823949       -1.45072838370889       -0.01757021200242
C          124.10546618620403       -1.23357359235467       -0.05225121013197
C          124.75779055076265        0.01352740709913        0.03709185437650
C          124.12807046342355        1.27105580637372        0.11659940364408
C          124.77405621463578        2.52830311997068        0.23711169758979
C          123.80779856884848        3.49685582623831        0.26487155792896
C          122.54327779971611        2.85799309673377        0.15229839572531
N          122.78757714883389        1.51243763166488        0.07665243600051
C          121.28216866657770        3.46666402483787        0.13561063400088
C          121.25943640652783        4.95003232127408        0.19178003129936
C          121.86854370368634        5.70158821047040       -0.81336568974762
C          121.83508584724480        7.09035415440965       -0.76285759203956
O          122.41499996765815        7.82954000906074       -1.73940935606315
C          121.19910603085967        7.73259811018984        0.30088579847815
O          121.18425944696207        9.10221415720197        0.32534982384551
C          120.59655985345964        6.98198733552477        1.30733344354018
O          119.99661346850496        7.68202664935039        2.32081040217768
C          120.62118585482673        5.59402647562037        1.25543989188281
C          120.06047552605274        2.79425743368468        0.07195096593138
C          118.77349989693579        3.46046037022287       -0.01482457767096
C          117.83962608690814        2.48702729761707       -0.04399003072808
C          118.55783406263579        1.22959892176316        0.01356132601811
N          119.88758569730007        1.44313934309490        0.07066501131989
H          116.82033259807139       -2.68314496998081        0.09837886204116
H          118.70553244820047       -4.57814139304841        0.04584739232094
H          120.59521907281285       -0.80470709493694       -0.05448120732742
H          122.49994865508356       -5.16448697404403        1.68989522823285
H          123.06341278013321       -7.21427147825930        2.47610475041846
H          121.01761465322060       -9.38977876793842       -1.10132060597301
H          119.85581676361414       -7.17594560498968       -2.90718748601961
H          120.30810388565948       -5.09035925618207       -2.00547571688982
H          124.04035757006766       -4.51837062161819       -0.35181893642703
H          125.89706301733837       -2.57682493310289       -0.25400226429006
H          125.84158836092995        2.66516795849245        0.29907790109922
H          123.95621652225439        4.55983201475245        0.36216760689666
H          122.06772584654455        0.80107821989140        0.00565247429017
H          122.34931111359896        5.21483391012895       -1.65208155018503
H          122.28028367771672        8.76907123020317       -1.53227153611141
H          120.70078080066050        9.38197340889970        1.11896898983812
H          119.59819824937179        7.08158349230640        2.96445211688374
H          120.16090017770559        5.01604754909661        2.04813481038771
H          118.62551281883412        4.52708887899961       -0.06351066253736
H          116.76774772676097        2.58471602908585       -0.10877807852464
C          131.36007171820162        0.00436212216863        0.04621693727738
C          131.98871242079659       -1.25650718145486        0.04156057457079
C          131.34135589863016       -2.51796581529951        0.07692144756983
C          132.30682123982257       -3.48744148072597        0.03919147843851
C          133.57196083685423       -2.84412037882600       -0.02982830805337
N          133.32899496665902       -1.49625025375269       -0.01451586245381
C          134.83228938044147       -3.45292486629120       -0.08799004911824
C          134.85026495919729       -4.93564643984758       -0.14305074313175
C          135.48384252835717       -5.66915307479238        0.86078786515783
C          135.51168763703362       -7.06049986799316        0.82285281244960
O          136.11777053251743       -7.78521339955152        1.79881007375755
C          134.90513784263328       -7.73776617445415       -0.24016371540062
O          134.92174339417332       -9.09377945269999       -0.30947153371728
C          134.27507575846892       -6.99607102772882       -1.24312356959434
O          133.70540956510754       -7.72028518848896       -2.25826327659621
C          134.23681061470600       -5.60930764158496       -1.20111432963423
C          136.05520313148483       -2.77993817553004       -0.10157922478494
C          137.34159330303157       -3.44014406987393       -0.23110924185880
C          138.27633428855640       -2.46768591323315       -0.19585603317621
N          136.22943108588177       -1.43163851152390       -0.01350191171397
C          137.55928469390540       -1.21603191577924       -0.05678747239945
C          138.21342902362571        0.03068105737707        0.02441573318008
C          137.58546739762019        1.28887944074743        0.10730278135681
C          138.23345075277166        2.54563572721853        0.22121934239569
C          137.26826700952967        3.51511638554759        0.25510114627940
C          136.00227544455154        2.87736384806083        0.15290356907216
N          136.24481564629451        1.53149330117087        0.07769030237047
C          134.74163725115565        3.48773489599150        0.14399892245703
C          134.72263269632271        4.97141245011521        0.19430165252674
C          135.32865510623222        5.71656279892027       -0.81757281834232
C          135.30093260670367        7.10562479292491       -0.77284548822061
O          135.87855539612141        7.83832554759306       -1.75560042242826
C          134.67341386396222        7.75482754391887        0.29170377958925
O          134.66436330344803        9.12457024270952        0.31059336662417
C          134.07349234682326        7.01073699428162        1.30454328125143
O          133.48190257686744        7.71745789877860        2.31832489802038
C          134.09264363041785        5.62242601015962        1.25860899107150
C          133.51854764310221        2.81694057008331        0.09072003268410
C          132.23158142243281        3.48431551154239        0.01189266252742
C          131.29654956481818        2.51176945864629       -0.01141499953311
C          132.01385958334501        1.25366179473040        0.04172887065185
N          133.34409133507361        1.46591528121965        0.09135162651991
H          130.27372957343519       -2.65772194097833        0.13046824929064
H          132.15685764636331       -4.55436199753208        0.06721346922638
H          134.04972124031050       -0.78250221095559       -0.03553984763497
H          135.94670829710708       -5.15463504471351        1.69531189862193
H          136.50226421809816       -7.20994141119764        2.47315139707101
H          134.45283965940783       -9.36270870170632       -1.11590454557002
H          133.29894697794180       -7.13714339672449       -2.91235286466017
H          133.75587351293532       -5.05711970382341       -2.00000176784263
H          137.48870786671560       -4.50149716954133       -0.34848160215419
H          139.34823622530794       -2.56185067092155       -0.26549044978958
H          139.30155402961654        2.68158199459199        0.27492317256357
H          137.41858520399293        4.57803139360839        0.35010078940096
H          135.52382002027360        0.82074039502349        0.01260654593785
H          135.80293531644287        5.22447009802321       -1.65687224821584
H          135.74904925384732        8.77928388324812       -1.55164185041276
H          134.18648032459518        9.40969744519250        1.10568588745108
H          133.08497624447682        7.12138740945575        2.96691630646665
H          133.63494480916609        5.04975780980741        2.05663649130006
H          132.08429135663886        4.55109327097821       -0.03592247442978
H          130.22431436548263        2.61018948501652       -0.06936679938908
C          144.81545253046335       -0.00573696296123       -0.02091227793165
C          145.44385816700728       -1.26666592448883       -0.02320423293144
C          144.79681245480359       -2.52802534412322        0.02162097533977
C          145.76255547191079       -3.49750927651720       -0.00725776012813
C          147.02765363274963       -2.85452978499192       -0.08166598346828
N          146.78413855325110       -1.50656142663142       -0.07859146301209
C          148.28841652201163       -3.46268374980486       -0.13405446663832
C          148.30918838683661       -4.94623065599692       -0.16085238056624
C          148.94486834306363       -5.65604076503632        0.85866782182067
C          148.97380013456990       -7.04779996642084        0.85301001000283
O          149.58115997870186       -7.74922995872636        1.84504142755855
C          148.36656143455073       -7.74980297596137       -0.19341885786344
O          148.38349328494269       -9.10707744935445       -0.23097701456068
C          147.73551045422076       -7.03183552801486       -1.21288284262639
O          147.16575304608492       -7.77987184788994       -2.21058523368179
C          147.69585218271277       -5.64441507781889       -1.20284772213666
C          149.51080798444173       -2.78871734342633       -0.16104838461390
C          150.79663955679254       -3.44976958560709       -0.29209481530394
C          151.73124872557651       -2.47666914542924       -0.27247692303956
N          149.68503942281276       -1.43982483089740       -0.08600875925622
C          151.01478000706851       -1.22420909171703       -0.13836401611497
C          151.66884877226255        0.02266256377989       -0.06228042217487
C          151.04086394235890        1.28031143761106        0.02880737681026
C          151.68920777389664        2.53606250644512        0.15116890185757
C          150.72403724667774        3.50483260455466        0.20100391887156
C          149.45772266608665        2.86784296817645        0.09862268820299
N          149.70008637344810        1.52295509615989        0.00744204189464
C          148.19659491553057        3.47719694235560        0.10226101848924
C          148.17541635237916        4.95939268400519        0.18320824279924
C          148.78033823183418        5.72945649459763       -0.81040442937960
C          148.75281623470534        7.11701047099949       -0.73059533757609
O          149.33019470707126        7.87425886151528       -1.69476041543809
C          148.12635911377342        7.73942421438383        0.35045298975964
O          148.11842458770204        9.10827679031776        0.40434154373525
C          147.52635640897816        6.97033404434782        1.34436939068693
O          146.93535513187555        7.65127045432205        2.37599012667227
C          147.54546351268360        5.58372902472390        1.26349599780219
C          146.97409710192537        2.80619141872721        0.04055988139578
C          145.68727020395713        3.47430277541470       -0.03372279967066
C          144.75235054462104        2.50199539143849       -0.06775476949028
C          145.46961718900761        1.24346145328503       -0.02348189065650
N          146.79978675646396        1.45521708274477        0.02824624571200
H          143.72918945308660       -2.66753738791085        0.07615027336095
H          145.61271956665720       -4.56417727118952        0.02975683235033
H          147.50478803074961       -0.79285569936470       -0.10372925529865
H          149.40837020350560       -5.12188515996975        1.68041519282181
H          149.96623649416395       -7.15812098390446        2.50522109594027
H          147.91403408127590       -9.39500234405066       -1.03048236747150
H          146.75907509706300       -7.21243589263333       -2.87818718789296
H          147.21378748661780       -5.11132973639852       -2.01392171846859
H          150.94304779174377       -4.51217723114529       -0.40067132597576
H          152.80274611183589       -2.57090494648819       -0.34823968273543
H          152.75752722658888        2.67183196470352        0.20060621345713
H          150.87489163161115        4.56664554032186        0.30663281772755
H          148.97880468154878        0.81262298265822       -0.05927065063223
H          149.25391732766300        5.25867338427467       -1.66222009629886
H          149.20164750885149        8.80973572728193       -1.46642994341177
H          147.64174495290709        9.37318382279653        1.20712008451536
H          146.53876378875120        7.03887009190847        3.00941795554594
H          147.08806987297044        4.99107795355979        2.04699029656443
H          145.54032302196876        4.54150924930602       -0.07232619735312
H          143.68023131153495        2.60102457731386       -0.12658411377534
C          158.27133881247329        0.01592741047507       -0.09842323069932
C          158.89756620249949       -1.24586634464510       -0.11444406623280
C          158.24795623173770       -2.50649944299471       -0.08260615857614
C          159.21100950706773       -3.47751507492942       -0.13228485319295
C          160.47733226870292       -2.83644870645327       -0.20788873571770
N          160.23688889885943       -1.48808347477483       -0.18121849545255
C          161.73582511520178       -3.44587049483836       -0.28784289130837
C          161.75323793468289       -4.92796084105961       -0.34818166727793
C          162.41225156610568       -5.66094419548419        0.63989131673160
C          162.43395322218677       -7.05238685263836        0.60639664361811
O          163.06332823125885       -7.77594761037809        1.56823060832358
C          161.79475080676525       -7.73104534237204       -0.43646914922816
O          161.80171403459357       -9.08739473036051       -0.49971153555644
C          161.14141958703323       -6.99022460998957       -1.42510231437413
O          160.54066399180161       -7.71593871767177       -2.42118526056829
C          161.10983399322836       -5.60314170699626       -1.38746811578306
C          162.95913885929056       -2.77171491311434       -0.30860465953826
C          164.24351554591968       -3.42858739943243       -0.47401311117042
C          165.17978075004680       -2.45869593543896       -0.41712648460449
N          163.13482980902714       -1.42796311393571       -0.18258425636461
C          164.46603152812264       -1.21191396044174       -0.22643674678042
C          165.12006813098120        0.02643733134749       -0.07728109982767
C          164.49431519974581        1.27935758423380        0.06228977670466
C          165.14359680814491        2.52853424155478        0.23981681157972
C          164.18119247266756        3.49950105927871        0.29084392915502
C          162.91550070468955        2.87112999810800        0.13620594246333
N          163.15485816483078        1.52845853307251        0.01596000355774
C          161.65781581989231        3.48723967138880        0.11647552704748
C          161.64532611402703        4.96869293511331        0.21037942133484
C          162.28432435856763        5.73930341134592       -0.76148965039171
C          162.26977766032559        7.12634941280692       -0.67257084447007
O          162.88096547852774        7.88405474623803       -1.61556525251478
C          161.62209388563716        7.74790378140597        0.39633397016130
O          161.62849352963156        9.11641333825512        0.46054920452127
C          160.98785856669920        6.97841711332575        1.36845697310589
O          160.37820098066601        7.65876156369400        2.38958466111540
C          160.99382149717457        5.59217571476689        1.27811838088290
C          160.43449431131307        2.82213624580167        0.01883660133999
C          159.15058922145863        3.49433881003047       -0.06851115148191
C          158.21385000958986        2.52472526532321       -0.12497750054505
C          158.92746325932458        1.26388345368877       -0.08340679627892
N          160.25718173924810        1.47193037625886       -0.01138663525735
H          157.18046352231772       -2.64449459073224       -0.02204409459871
H          159.05853597697919       -4.54416121568404       -0.10816530356081
H          160.95921320733314       -0.77591228980112       -0.19934212442858
H          162.89906044916859       -5.14541350931611        1.46005649847112
H          163.47316141459288       -7.19966652125180        2.22664720296078
H          161.31022834712874       -9.35732817118053       -1.29223077648731
H          160.12208787939252       -7.13347449248999       -3.06815025628774
H          160.60999028842596       -5.05230214799091       -2.17560444068124
H          164.38739750524473       -4.48561419393477       -0.62868287020074
H          166.25083523975306       -2.55076334034399       -0.50099666278568
H          166.21074111365780        2.65822230504146        0.32066108179128
H          164.33274799314023        4.55733392749716        0.43017855182299
H          162.43302005494724        0.82370035362061       -0.09114812909587
H          162.77589173646842        5.26903995594054       -1.60336613433028
H          162.75656585698238        8.81914375834265       -1.38344444617282
H          161.13501448709107        9.38073534289570        1.25329533911543
H          159.96008015243291        7.04636455375045        3.00901103597304
H          160.51034785912364        4.99928129436517        2.04558329752625
H          159.00703948267181        4.56232235156473       -0.09831070767713
H          157.14285313858770        2.62679129250951       -0.19801625728885
