154
 energy: -263.284360813288 gnorm: 0.000554288467 xtb: 6.5.1 (b24c23e)
C            9.56722413204247        0.02680234680249        0.09333775578229
C           10.17205256048511        0.01885155471764        1.34364426259483
C            9.52320374304962       -0.02463844954782        2.60989605929559
C           10.48734094540943       -0.00920516935419        3.57810896607421
C           11.75650029486203        0.04359496250116        2.93442688255802
N           11.51574264406803        0.05977134120943        1.58932612693771
C           13.01672657941733        0.07155590106640        3.54030180264134
C           14.23822981274267        0.08351784512127        2.86667581226314
C           15.52515871323135        0.09252325517886        3.53788949175843
C           16.46236547117844        0.11273878802744        2.56755375053189
N           14.41422499840858        0.11200939756634        1.51627608524039
C           15.74555716007124        0.12423217921376        1.30661519111882
C           16.39852501960193        0.15105301113034        0.05676817627643
C           15.76745510575470        0.18104587364833       -1.20157897588237
C           16.40966369590268        0.22369079387581       -2.46778770688062
C           15.44008980294030        0.25441367637728       -3.43152485890982
C           14.17524330123034        0.22963108682844       -2.78142060796405
C           12.91607445670761        0.24431669405519       -3.38609987758893
C           12.89966859202899        0.25987746166137       -4.87985784527085
C           13.10191548676498        1.39914688529920       -5.66343024588607
O           13.30650399617575        2.65921865837270       -5.19564534287114
C           12.89589169658859        3.08644509263393       -3.90947131170896
C           13.12915405206898        1.29141147127466       -7.05968269505404
C           12.94486737194927        0.06791091561605       -7.67056370230986
C           12.72239864168651       -1.07572475558366       -6.91263687941764
C           12.70369320569081       -0.97654944235368       -5.52621710369997
O           12.51666089961956       -2.03933213600456       -4.69792951486596
C           12.28288534187226       -3.32801022398340       -5.22889833034561
C           11.69457744909438        0.17410491984805       -2.71175942952275
C           10.40229607847809        0.15573352876415       -3.37799375692064
C            9.47155661183464        0.09352504913780       -2.40419039060725
C           10.19511980121814        0.08087341704291       -1.14457642076992
N           11.53112150230845        0.13510771942649       -1.36801816142617
N           14.42509780134554        0.18690296686622       -1.43438957574328
C           13.03029417296463        0.02100945978667        5.03269169942657
C           12.69504954905960        1.09981383781806        5.85591647636265
O           12.36009415271136        2.34571209126176        5.42349583579739
C           12.82830131157269        2.88519948219526        4.19979098389424
C           12.66114068450904        0.93721106940576        7.24598124027277
C           12.97231846952001       -0.28175618583627        7.81374390490887
C           13.33209225019558       -1.36235899892694        7.01729488766432
C           13.35684784394698       -1.20964819556804        5.63552937301237
O           13.66960464775540       -2.21469312398987        4.77412115820014
C           14.06304439285240       -3.48063648195522        5.26416789542315
H            8.48265232406706       -0.01114629442474        0.09305848735471
H            8.45430459283457       -0.06249609394208        2.74763631695801
H           10.34267308103788       -0.03427897024407        4.64602555710576
H           12.23668737303773        0.07629187055148        0.87595564494995
H           15.66449876315536        0.07947242288835        4.60687862524714
H           17.53607936163059        0.12166870536201        2.66721344891230
H           17.47811997951969        0.22990609098582       -2.61167770309196
H           15.57978608495054        0.28797135801757       -4.49979053896528
H           13.59180154815037        2.75228472060616       -3.13220482524819
H           12.89518829614105        4.17890971856356       -3.93912052674445
H           11.88744680576047        2.73189008993358       -3.67199601203576
H           13.29559982202507        2.18996941434100       -7.64015758878536
H           12.96684362829541       -0.00446625494716       -8.75205561941415
H           12.57477248936768       -2.02707304059629       -7.40566403738055
H           12.14907225681417       -3.98982926731392       -4.37115588888604
H           11.37605384220414       -3.34959735221237       -5.84534407544264
H           13.13468411997755       -3.67834052002223       -5.82438506528448
H           10.25909553121370        0.18192525114246       -4.44651701684207
H            8.39718675441110        0.05938765268710       -2.49687922276837
H           13.70793152540837        0.14242455617541       -0.71813863611067
H           13.86939551732066        2.60425269281861        4.01008647938712
H           12.76090728710742        3.97160035515748        4.29903314869203
H           12.20620605725311        2.56632427663256        3.35623271712383
H           12.38915611355588        1.78883122604180        7.85654895221649
H           12.94447153092771       -0.39882609866394        8.89117268271685
H           13.57890048305239       -2.30965659334837        7.47741272495957
H           13.25909771085310       -3.95799921929417        5.83750323263496
H           14.28725332952992       -4.08951936896463        4.38635149176872
H           14.96049670971895       -3.40694571057962        5.89017922860092
C           34.97113854521069        0.01878464802648       -0.09613634874558
C           34.36657317792397       -0.09930452967888       -1.34099684962827
C           35.01593534551109       -0.25409728146450       -2.59826470601075
C           34.05219633432209       -0.32430748710909       -3.56442748157664
C           32.78275118064816       -0.21527315209375       -2.92839087095959
N           33.02297569387154       -0.08048451695884       -1.58986004993593
C           31.52275289479036       -0.24163322206653       -3.53482029909736
C           30.30101433002597       -0.17076418671091       -2.86521955670968
C           29.01418906586872       -0.22261435846099       -3.53466223717635
C           28.07679770110003       -0.11704420720736       -2.57002328802865
N           30.12474336000833       -0.02248432375649       -1.52269996068660
C           28.79337083620334        0.00722236051167       -1.31505161371000
C           28.14022990647924        0.14488877385892       -0.07260986008209
C           28.77099360771041        0.28663580557778        1.17825632964476
C           28.12834352313360        0.44138073266712        2.43547279190474
C           29.09758589541901        0.55753965738701        3.39300579968996
C           30.36263698758636        0.47522418033973        2.74811392625311
C           31.62157469628594        0.54328126750093        3.34958077339855
C           31.63734845023804        0.69076490854970        4.83613058369029
C           31.43499656072583        1.89486889778680        5.51583557489554
O           31.23085710957525        3.10863903822272        4.93830940103000
C           31.64308706573265        3.42068608703852        3.61995857084261
C           31.40695596106331        1.91095231671611        6.91612489619990
C           31.59064422556302        0.74616679450093        7.63280865396351
C           31.81314467137507       -0.46003640753776        6.97903224292330
C           31.83249256783889       -0.48379964094799        5.58928098647160
O           32.01933440288901       -1.61568434489222        4.85822334075460
C           32.25199303438842       -2.85257811089015        5.50104873271335
C           32.84326499392495        0.41353702606862        2.68452371041776
C           34.13536474251801        0.45381622047035        3.35012083325327
C           35.06634187178202        0.30560408016688        2.38587184433441
C           34.34308003295574        0.18191270706330        1.13210593585059
N           33.00705696600418        0.25593031720624        1.34951664040083
N           30.11325954208299        0.31330288401895        1.41005282404654
C           31.50984488994881       -0.42407759546746       -5.01690739226951
C           31.84500804048122        0.57786842850505       -5.93219233101428
O           32.17941059819597        1.85720691035644       -5.61137872762336
C           31.70976233224999        2.50277511884045       -4.44072920609257
C           31.87959550102959        0.29304843308033       -7.30241003900977
C           31.56928447962090       -0.97151655082270       -7.76032188234169
C           31.20975601582665       -1.97764467870209       -6.87158850300241
C           31.18427296750229       -1.70338698908538       -5.50871837107420
O           30.87180144998730       -2.62863671307568       -4.56202086645647
C           30.47832665789010       -3.93285401273343       -4.93855959333413
H           36.05571120662054       -0.01907256004271       -0.09237289259815
H           36.08490703131024       -0.30369252073817       -2.73165069896273
H           34.19726096978447       -0.44336618984248       -4.62592780108400
H           32.30175705255760       -0.00110176915995       -0.88100641416208
H           28.87492081747674       -0.33078342719262       -4.59825584542208
H           27.00309543063216       -0.11813931017661       -2.67024872676435
H           27.05985162027354        0.46026478605529        2.57795667368075
H           28.95749003805836        0.68572471632573        4.45403189209491
H           30.94808557469799        3.01926891320410        2.87434355868087
H           31.64390920619004        4.51150886872288        3.55309873644590
H           32.65177408014675        3.04652633413862        3.41592111771549
H           31.24035575398884        2.85729179826010        7.41486845256655
H           31.56811378905042        0.76962340567923        8.71645504984832
H           31.96026855747942       -1.36408921451743        7.55433903288129
H           32.38556467215028       -3.58768202424843        4.70517361823017
H           33.15862333557997       -2.82027625239192        6.11732309811361
H           31.39975647367280       -3.14833224037309        6.12484816967820
H           34.27832576133905        0.57425318402677        4.41219402340841
H           36.14067825502552        0.27953430693405        2.48153064776717
H           30.83068248945973        0.20540273512407        0.70084528458313
H           30.66871399251587        2.23892517893177       -4.22773769662622
H           31.77649687056655        3.57615362788714       -4.63584804347762
H           32.33129430881629        2.26040225804249       -3.57170426419010
H           32.15146313908897        1.08750097604272       -7.98575376978478
H           31.59769428503533       -1.18336221990443       -8.82317148160324
H           30.96375364425567       -2.96210059359999       -7.24618766938534
H           31.28240301241167       -4.45909624295957       -5.46718825400241
H           30.25365634182087       -4.46183026863771       -4.01051198496800
H           29.58114407235196       -3.91455372153143       -5.56900247492370
C           17.80294754874417        0.15308458367020        0.05011501262611
C           19.02786455354280        0.15342940456742        0.03828374827834
C           20.36986922430473        0.15052242615766        0.02228661951544
C           21.60075720598297        0.14971439899517        0.00308002662006
C           22.93797593288081        0.14809844192723       -0.01968151158581
C           24.16887247158365        0.14928878673083       -0.03825421088139
C           25.51090858993392        0.15027133321258       -0.05210279611180
C           26.73580111678103        0.14569461779342       -0.06575465004523
