219
 energy: -356.806362136542 gnorm: 0.000719467914 xtb: 6.5.1 (b24c23e)
Cu          25.80530324193628        0.05058870251245       -0.09840124995248
C           22.40313653585165        0.15154216242509       -0.26635062851411
C           23.04641958089382        1.33036278063535        0.07974073847771
C           22.38030067920734        2.55938018771851        0.40335532681448
C           23.34481269821990        3.46422303907059        0.70360799871188
C           24.61036313127406        2.79851058338399        0.55506132183168
N           24.39744191976474        1.50206885086263        0.18370500528154
C           25.85769804101654        3.38588621465563        0.77841010767701
C           27.08439656730274        2.73061459396045        0.66290487785250
C           28.36623895679929        3.35286480920941        0.83635156461588
C           29.30549828593884        2.39672355032775        0.62274383787798
N           27.26399232037120        1.41141071372502        0.33832165549611
C           28.60565477072740        1.18602909928231        0.31380857645172
C           29.23258069266565       -0.03993211016024        0.02698712632107
C           28.56382508400793       -1.23657285469006       -0.28722950714501
C           29.22155120900690       -2.47364257638169       -0.58375781423509
C           28.25050108037739       -3.38430084203492       -0.84796285617322
C           26.99098591395700       -2.70961014421401       -0.70999261606538
C           25.74364514753994       -3.29697555431123       -0.92668676314540
C           25.71590381767690       -4.74159909309733       -1.27139309283279
C           25.23245608072693       -5.16104492731248       -2.50848130978560
C           25.20249452070357       -6.51425387596396       -2.83418836833412
C           24.66573726849320       -6.95380840732444       -4.16973012662737
C           25.65546554959663       -7.44756390522964       -1.90885962231490
C           26.14015484959379       -7.04373675229115       -0.66673243592745
C           26.63575188258631       -8.06941530353153        0.31669503240539
C           26.17074652295722       -5.69004672476379       -0.35498103220746
C           24.51836760765762       -2.63144336197536       -0.84498462347062
C           23.23138246241581       -3.24204738673223       -1.03948158482184
C           22.29903647638143       -2.27345521769549       -0.86151828317535
C           23.00628456920734       -1.06554685805035       -0.54585868491049
N           24.34988892160220       -1.31110449151503       -0.54095164578046
N           27.21567411258544       -1.40075972016015       -0.37183042219268
C           25.87906118872801        4.81935197081584        1.16705525638252
C           25.40583070010719        5.79330106615276        0.28866520626857
C           25.42006649872960        7.13605372124773        0.64916428512296
C           24.93211945900074        8.18821628349965       -0.30982389518192
C           25.90879794612965        7.50128363803522        1.90047212939368
C           26.38360356706280        6.54103059184790        2.78821852521632
C           26.88585432490002        6.94306589740215        4.14868433607302
C           26.36835362596659        5.20096055109940        2.41493971604795
H           21.31917520384190        0.18080284064277       -0.30893941753402
H           21.31026541708472        2.69603038869767        0.40472382784998
H           23.21790853541110        4.49033433351249        1.00928230841057
H           28.52273098441141        4.39184477557447        1.07749023846395
H           30.37861014574353        2.49385379684446        0.66426524805742
H           30.29041672433348       -2.61592070663344       -0.59084295597772
H           28.37174418400750       -4.41904562464970       -1.12492010555494
H           24.89258314430814       -4.42332733363024       -3.22722084879131
H           24.96204006341942       -7.97888577699521       -4.39184018316376
H           23.57454709987190       -6.90482192403469       -4.16674875077917
H           25.02963657710862       -6.30142404970933       -4.96440162771435
H           25.63215909371919       -8.50415285338568       -2.15535187954132
H           26.78786216316330       -7.62612386170261        1.30061859384423
H           25.92243040104675       -8.88982980169412        0.40695041614038
H           27.58596703502162       -8.48569499647193       -0.02451418138640
H           26.53450333068743       -5.36280383915874        0.61291774060462
H           23.06901257907649       -4.28227847882970       -1.27179495990947
H           21.22556838963970       -2.35725483694938       -0.92704950526715
H           25.03884852986911        5.49691854042010       -0.68793833267897
H           24.41403831548203        8.98635242854492        0.22278297206331
H           24.25486030913882        7.75869140111343       -1.04805820838856
H           25.77935543348554        8.62968586851482       -0.83953860610896
H           25.91937679476752        8.54809023610785        2.18642798779063
H           26.06387051772671        6.92321901038036        4.86803441017128
H           27.29515420328491        7.95329642330120        4.12914035432000
H           27.65710814277210        6.25557566201324        4.49663924581916
H           26.72431796847807        4.44191727386564        3.10300279947736
Cu          63.02366738271878        0.05602886741110       -0.07091839884246
C           66.42479034347500        0.19154391678802       -0.23547934596247
C           65.77571652376764       -0.46856459814702       -1.26800723646836
C           66.43532717167150       -1.11709251845026       -2.36506847849733
C           65.46650037481648       -1.66030573328252       -3.14315004206793
C           64.20480573836095       -1.33982602732967       -2.53299589785185
N           64.42422011117233       -0.62125826016414       -1.39304701782285
C           62.95556111286184       -1.72904403999861       -3.02084719413122
C           61.73271929291958       -1.44265849691198       -2.41270452334355
C           60.44845390486130       -1.79837274761864       -2.94631610503686
C           59.51367173283955       -1.32432518951575       -2.08421311334850
N           61.55911830357044       -0.75366838846310       -1.24114659014009
C           60.21863333070925       -0.67356265240218       -1.02072957667488
C           59.59751112478882       -0.04359441786891        0.07225293696177
C           60.27113883715230        0.60446734448471        1.12246774194449
C           59.61905456434404        1.24349056046959        2.22587644474521
C           60.59429058649899        1.75397091224563        3.01974353172576
C           61.85084216276362        1.42654721228739        2.40756300747520
C           63.10111795125059        1.79652889429404        2.90558039087046
C           63.13547100023217        2.53250341464729        4.19539561392867
C           63.62529314878456        3.83523942372525        4.25097648512036
C           63.66136294877160        4.52620319376887        5.45903548738882
C           64.20552632309348        5.92856510610939        5.50686837576947
C           63.20782711090931        3.90113364013126        6.61497606865822
C           62.71671133283921        2.59804255019100        6.57581460391201
C           62.21998703303012        1.94310752777202        7.83639497666087
C           62.68036656217711        1.92024546161968        5.36343299609364
C           64.32329238688122        1.52719196780170        2.28542704459520
C           65.61340157459227        1.88215524724747        2.81149884401944
C           66.54094780710049        1.43821966904102        1.92739364849967
C           65.82769678429715        0.79854045459771        0.85919379926832
N           64.48533557034003        0.86465171077742        1.10263359517516
N           61.62022571061324        0.73054424530009        1.25002409582378
C           62.92681639663539       -2.50759082327862       -4.28581003145205
C           63.36870097677611       -1.93201190936864       -5.47628040979881
C           63.34496117446539       -2.65738128970817       -6.66226563510447
C           63.79649762946262       -2.02599458060848       -7.95154667568230
C           62.87984630555528       -3.96946426943980       -6.65024716475497
C           62.43740344037941       -4.55810448179429       -5.46986088540477
C           61.96139677998967       -5.98571392142290       -5.46173194933495
C           62.46056899196115       -3.82081625517103       -4.29034808399877
H           67.50848263370922        0.22495351083370       -0.28178152928373
H           67.50436311895540       -1.15132681984665       -2.50525182492446
H           65.58766714575107       -2.23664411804161       -4.04628086331063
H           60.28762577266085       -2.33141960969668       -3.86942657343962
H           58.44039292558919       -1.39998063631623       -2.15535999079089
H           58.55079776418224        1.29282896481135        2.36439018891475
H           60.47783109257421        2.31435826007078        3.93325423646704
H           63.96527596807209        4.31744791222517        3.34091443466760
H           63.90563606751952        6.43291506440094        6.42536381024198
H           65.29692305685489        5.90566743094073        5.46862864046764
H           63.85100113612886        6.50856525219602        4.65400075438328
H           63.23576861469333        4.43331151535906        7.56032433849700
H           62.06874474456315        0.87405701231974        7.68799793792575
H           62.93192932892605        2.08815270945330        8.65009814131195
H           61.26893758398199        2.38706538836943        8.13816449721844
H           62.31181078931439        0.90113560362007        5.32088225380415
H           65.78098055092808        2.39633828581957        3.74420479030418
H           67.61485496671769        1.52243914880655        1.98476229548092
H           63.71828992634096       -0.90534039209988       -5.47413520909796
H           64.31459232140202       -2.75314690343566       -8.57757604985093
H           64.46330818208459       -1.18499237435405       -7.76121155326153
H           62.93137774244033       -1.65700641960910       -8.50719680332715
H           62.86223155201599       -4.53965690275152       -7.57342497969224
H           62.79918955730125       -6.65446443406028       -5.25100719843134
H           61.54232875145100       -6.26150106368119       -6.42960192109679
H           61.20449575299654       -6.13823479069742       -4.69205343153002
H           62.12865516988911       -4.27195874011247       -3.36159257715431
C           30.63772796858413       -0.06800832724674        0.04809054817716
C           31.86219713497263       -0.08290584477609        0.05958042992785
C           33.20504461737000       -0.09760082095114        0.06828345048245
C           34.43585483510869       -0.10493740340005        0.07418078210802
C           35.77393899287889       -0.11149991775569        0.07285965780655
C           37.00476225536453       -0.11192362864832        0.07388666333403
C           38.34746830071129       -0.11162523826688        0.07233292551857
C           39.57233237969071       -0.10907521943526        0.06676077454726
C           49.25660461348312       -0.08737574181707        0.11216766350014
C           50.48106147807614       -0.08915859406591        0.12493937558887
C           51.82433105700143       -0.08657282996365        0.13697540430613
C           53.05487702536975       -0.08104116378002        0.14362651782395
C           54.39361039820859       -0.07869951803316        0.14545035494235
C           55.62403716963012       -0.06967615124056        0.13987093963903
C           56.96756334966429       -0.06360806079031        0.12854355007452
C           58.19175176094394       -0.05773421002720        0.11194032584858
Cu          44.41427348879111       -0.10112941639711        0.06496187663621
C           40.97713527235245       -0.10751007767702        0.06275834661818
C           41.62425750358580        1.13567867234358       -0.06048420096014
C           40.94559512708932        2.39378263253735       -0.14327522670154
C           41.90066638671077        3.34984833209973       -0.27247656891183
C           43.16960620113443        2.67943156988587       -0.27510240814522
N           42.96818731286045        1.33177520237827       -0.13636975825449
C           44.40845211736674        3.31417188746324       -0.38430148185651
C           45.64992243949749        2.67882488354840       -0.31509271147358
C           46.91765762867405        3.33091430252816       -0.48104070438889
C           47.87600090369305        2.37974511320884       -0.34112140011387
N           45.85542230137325        1.34303571408182       -0.09274647041093
C           47.20059585755756        1.14024963889453       -0.10060152715004
C           47.85114295206079       -0.09108368477018        0.09733798591395
C           47.20412549453441       -1.32731520108583        0.27530302873767
C           47.88186594735439       -2.56606783766576        0.51315988494717
C           46.92680276669401       -3.52537356504558        0.61502260892277
C           45.65892070463063       -2.87797553050672        0.43301723225063
C           44.42048217647599       -3.52193044052596        0.46971072809085
C           44.42520874949847       -4.99793940152637        0.63265764351121
C           43.83878706765507       -5.58557869059195        1.75188101625193
C           43.83956796992586       -6.96844386731822        1.90605568989461
C           43.22423120939029       -7.59254487689222        3.12940540661343
C           44.42999206572163       -7.76287106778728        0.92878435787713
C           45.01753938253468       -7.19079300889003       -0.19657069074070
C           45.66319381736164       -8.06347834379563       -1.23882449721234
C           45.01531642333416       -5.80792763859171       -0.33736727031969
C           43.17926794983648       -2.89128701630276        0.36477188476871
C           41.91273987756324       -3.56608763790874        0.34919499490239
C           40.95415239200538       -2.61108327146776        0.23978138739817
C           41.62841174583545       -1.34949903599156        0.17674706908815
N           42.97296947453047       -1.54201853786731        0.24944819139144
N           45.86065439739691       -1.53778020869569        0.23620828999528
C           44.40529788669569        4.78445470152747       -0.59290685351354
C           44.97957584970165        5.63193621718831        0.35290304406892
C           44.97738401838833        7.00978740035071        0.16086467280248
C           45.61265197313818        7.91682041567389        1.17991170385277
C           44.40090458753388        7.53672883198872       -0.99048850051727
C           43.82368232458502        6.70338737398295       -1.94457613907414
C           43.22113733539113        7.28495102260693       -3.19494589087345
C           43.82727688774420        5.32822667872556       -1.73953829529863
H           39.87558057552848        2.52023787535008       -0.10051287254842
H           41.76280283051992        4.41648418398670       -0.34559908622180
H           47.05318636795343        4.37966943447668       -0.69023182210311
H           48.94624284533685        2.49583485971289       -0.40321472385979
H           48.95115401532911       -2.67668023460423        0.59759257097659
H           47.06385248668395       -4.57669960483874        0.80996332389632
H           43.39140668694120       -4.95541611535895        2.51280233446416
H           42.91291326485898       -8.61777954505779        2.92876349746711
H           43.95275922386724       -7.61052935852241        3.94322570860861
H           42.35892913809919       -7.01915020359424        3.46302422365679
H           44.43018454576288       -8.84212881677207        1.04224298172680
H           45.76358608108648       -7.53182465719373       -2.18501782870617
H           45.07649445841891       -8.96803737282035       -1.40251458395098
H           46.65999260420752       -8.36283303515467       -0.90714102775495
H           45.45738325312161       -5.35045287875287       -1.21574130955252
H           41.77828847361340       -4.63432508161754        0.40222125979324
H           39.88456969162903       -2.74061734412436        0.19558923843310
H           45.41356894465265        5.21045150029005        1.25304493247897
H           45.15758959198696        8.90714630679263        1.15712299397337
H           46.67810338777266        8.02674954935217        0.96491711711138
H           45.51104121677013        7.50382807041041        2.18378255717491
H           44.39772916542003        8.61079462668495       -1.14551828882413
H           42.76065556348531        8.25172292300909       -2.98957806683626
H           42.46803964079508        6.61610791283181       -3.61175800491026
H           43.99909379011870        7.43341838943287       -3.94737685208297
H           43.39083899787163        4.66756468231094       -2.48069187402391
