460
 energy: -850.777368385361 gnorm: 0.000840479762 xtb: 6.5.1 (b24c23e)
C           93.12150960972055        0.00188706580034       -0.27053930815184
C           93.72460614733824        1.22030479888163       -0.55358261177811
C           93.06832561811767        2.43079065383340       -0.91449970027560
C           94.02576384032885        3.38135919686762       -1.12845819391599
C           95.29823252800389        2.78468217162725       -0.89525294545175
N           95.06566556712367        1.48201293845537       -0.55709939000336
C           96.55902536011740        3.38035741321654       -1.01232850888471
C           96.58344068999932        4.81814526691260       -1.37772553130072
C           95.97344719682235        5.76734062674515       -0.56260613412462
C           95.99491522831802        7.11757899925798       -0.91018914025332
C           95.32751982186991        8.08034589768154        0.00162613358208
O           95.41903800883794        9.35498443234679       -0.40432657466679
O           94.75050686171602        7.77087025068387        1.01253480058245
C           96.62772206064466        7.52765885830499       -2.08347822804904
C           97.23433296521310        6.58429721184103       -2.89795798580993
C           97.21475852238055        5.24111926070918       -2.55018496817450
C           97.77810691301514        2.72741682015302       -0.81419707299120
C           99.07008935819363        3.38760738939093       -0.87150901260690
C           99.99565080739431        2.43858612589678       -0.62068933406348
N           97.94024953413407        1.40862946607242       -0.51797594560292
C           99.26776082152853        1.20331887671324       -0.40321741885035
C           99.91123726349009       -0.01655550245258       -0.11167228696338
C           99.28235875594494       -1.24723286100170        0.15634635670603
C           99.93228646960885       -2.46316665171621        0.49654625817916
C           98.96966694477912       -3.40946180818792        0.71495139078660
C           97.70109184859515       -2.80121513813268        0.50453495170895
N           97.94225301056241       -1.49447994235569        0.17169830067731
C           96.44101837998357       -3.39288677061713        0.64137842771957
C           96.41371428093748       -4.83063376845139        1.00676341208011
C           96.98944308155056       -5.78916129774084        0.16993412965460
C           96.96207380201248       -7.13427052404239        0.51166087241095
C           96.36417811379846       -7.53884502507949        1.69336461268627
C           95.78706388793834       -6.59025889192803        2.53908751793725
C           95.15899081864318       -7.06327393786581        3.79859610292727
O           94.63269316657809       -6.07744312459801        4.53928102197054
O           95.11390313679013       -8.21640132820122        4.14320037889932
C           95.81094034019226       -5.24060810921065        2.19439057527106
C           95.22087648581963       -2.73295596255844        0.46293070020795
C           93.92050064773471       -3.37999639097254        0.54859188955826
C           93.00217507352757       -2.42666137999372        0.29396218784899
C           93.74018715704297       -1.20035685344288        0.04599571195236
N           95.07305153672992       -1.42337600288301        0.15221682023924
H           92.03712181024966       -0.00510572644324       -0.31532381973183
H           91.99963163167595        2.54384689646466       -1.00271667202035
H           93.87054909447026        4.40421875711020       -1.43086888831119
H           95.79301140649625        0.80736447319311       -0.34493813114859
H           95.48978735297956        5.46977849412048        0.36140107005792
H           94.96071710224945        9.91774786555413        0.24069312326640
H           96.64145753820210        8.57671069105386       -2.35308378157241
H           97.72494473326948        6.89537117041986       -3.81328990699094
H           97.67933128317890        4.50714344763728       -3.19903323244642
H           99.22572177076673        4.43752036374110       -1.06004565314577
H          101.06804207213970        2.54070002300698       -0.57334483872934
H          101.00067349353716       -2.58602692965176        0.57185186826147
H           99.12178360060470       -4.43526623672844        1.00855651256647
H           97.21692185527903       -0.81129469600023       -0.02039752282837
H           97.44570381786671       -5.47682397230608       -0.76283703625486
H           97.40850170264358       -7.86723302170861       -0.15062177545334
H           96.33498935133134       -8.58509019129728        1.97595567233300
H           94.24483251560518       -6.46646351464538        5.33996450445982
H           95.37369382975335       -4.50477297146975        2.85879660487192
H           93.75830671135061       -4.42472929103389        0.75965199654486
H           91.92757646258593       -2.51502652284614        0.26206613260284
C          180.62606621020413       -0.05726447411807       -0.28179050075316
C          180.02847523869838       -1.29299653554285       -0.07132724402626
C          180.69026007854868       -2.54606422821727        0.06306001173111
C          179.73687013329820       -3.51024577693603        0.22899626183353
C          178.46143533608503       -2.87592073594116        0.20978742025048
N          178.68832108249097       -1.54208704784122        0.02345428837933
C          177.20324028135497       -3.47885467167970        0.31726812633696
C          177.18742970135645       -4.94753568303958        0.52931016663000
C          177.78130250062071       -5.50471767835671        1.65814975515574
C          177.76721097452332       -6.88476081334054        1.85724661892771
C          178.41580783739184       -7.41660635979016        3.08211563606045
O          178.32955407401954       -8.74948239069780        3.19891532386097
O          178.97354946617818       -6.73708090360684        3.90547222630132
C          177.15856138227366       -7.71997554471400        0.92069206099301
C          176.56903574175266       -7.16787829654196       -0.20578371533442
C          176.58084320767176       -5.79415397599673       -0.40179456077751
C          175.98057352364404       -2.80747854229530        0.24272645584630
C          174.69025545725674       -3.45015049498040        0.41728850434797
C          173.76061538523192       -2.47994977371387        0.29668759075275
N          175.81299426562262       -1.47257706109875        0.03411994993383
C          174.48425793022071       -1.24599022983983        0.05814844417359
C          173.83684642888588       -0.00320856935181       -0.09546562982097
C          174.46162123095885        1.24417438259330       -0.28413864320407
C          173.80769312146359        2.49931036529033       -0.40138252410301
C          174.76595607630404        3.46040379127553       -0.56773942141098
C          176.03557440903950        2.81875308029130       -0.56547277328452
N          175.79977460715457        1.48155412964120       -0.38463646394766
C          177.29218897437013        3.42014548071954       -0.69093223220378
C          177.31143598025631        4.88797647725567       -0.90587797420196
C          176.70679797456168        5.44850593217453       -2.03329020398104
C          176.72677131898260        6.82124728243876       -2.23779277486979
C          177.34602943897872        7.65149106933340       -1.31865139967893
C          177.95162906425733        7.10373220691869       -0.18669003355618
C          178.60176736034910        8.02715287636597        0.77704156872945
O          179.15302160513036        7.40457747712302        1.82873601515087
O          178.64308827911057        9.22399894712072        0.64838208967303
C          177.93510664406881        5.72550116752420        0.01675426288278
C          178.51504008073579        2.74408454020183       -0.62932965819126
C          179.81124628601461        3.37707150037672       -0.81917358953876
C          180.73367465078633        2.40127359667948       -0.70060351689672
C          180.00208364392961        1.17215664015740       -0.44770130744140
N          178.66894744833209        1.41571134553546       -0.41705075289838
H          181.71021795661068       -0.06421788475492       -0.33209454727471
H          181.75969553162366       -2.67937166639982        0.02817637666712
H          179.89660528373000       -4.56993266193744        0.34457028591120
H          177.95781465859147       -0.84112947217904       -0.04133173903757
H          178.24651108922168       -4.87027548024564        2.40468700756473
H          178.77339795159261       -9.01660877711569        4.02018269258466
H          177.15008332820898       -8.79200508473100        1.07583409734603
H          176.09762379733922       -7.81151212999321       -0.93980007296272
H          176.12945557663352       -5.37041280555330       -1.29186249694508
H          174.53816195694807       -4.49767810191866        0.62120226017511
H          172.68795800524981       -2.56339942981734        0.36828967671962
H          172.73984454387551        2.63995861700386       -0.35574754889555
H          174.61061973390312        4.52190660401026       -0.67112051366669
H          176.52709287088075        0.77626661122405       -0.32751443751320
H          176.23348461661075        4.79955232353215       -2.76172673289174
H          176.25786798104389        7.24105725392070       -3.12041247508145
H          177.37009337104288        8.72577189768231       -1.46249463076325
H          179.55407626856098        8.07290800408448        2.40775852148364
H          178.39449136093128        5.30392800676777        0.90291630071041
H          179.96807667650231        4.42299739572728       -1.02840080768711
H          181.80708578870235        2.47300601632296       -0.77967371578609
C          102.53877196781606       -0.02102557884443       -0.04145830755576
C          101.31681660429815       -0.01660084305724       -0.07023613607238
C          103.88773783351049       -0.02177079675468       -0.01252520188350
C          105.10994700894672       -0.02417287653947        0.00933061227525
C          116.00391810618724       -0.00828191354395        0.09573289799179
C          114.78110565943980       -0.00667348813856        0.09761223355121
C          117.35227055444781       -0.00499336398635        0.09492611389248
C          118.57509970229559       -0.00367789208113        0.09571914570551
C          129.46851747011368        0.00983833423774        0.12094299617469
C          128.24569800211844        0.01334784909991        0.11794252938085
C          130.81679656801421        0.01267663590549        0.12206513077096
C          132.03963461698402        0.01156402718458        0.12059790506231
C          142.93265303547014        0.01381612946876        0.11789788354542
C          141.70982983598572        0.01646445363313        0.11948110005555
C          144.28094526738951        0.01387627282341        0.11927036827693
C          145.50379205484793        0.01240485981258        0.11685303417039
C          156.39652282784900        0.01726914711637        0.09186991344917
C          155.17369512727052        0.01927814263666        0.09563946934477
C          157.74486692272001        0.02019309475530        0.08659872222046
C          158.96768209118670        0.01883026806930        0.08405892330903
C          169.86072766273293        0.02607966451781        0.00829859228810
C          168.63847068700778        0.03320903248711        0.02765671976028
C          171.20970322627664        0.02121324919106       -0.01805991362149
C          172.43153988667495        0.00901262663749       -0.04797000125921
C          106.51491040801389       -0.02281540110204        0.03329199211785
C          107.13694384626253        1.23082407940581        0.19015072268569
C          106.48436789024460        2.48524977194243        0.30525632406366
C          107.44485821730805        3.44518828657698        0.47362673601555
C          108.71219497021558        2.80158308631322        0.47390214283223
N          108.47586820298608        1.46611554104864        0.28796386283497
C          109.96853692297340        3.40248693204308        0.62113042999371
C          109.97228812740663        4.86754547998097        0.86206527344025
C          110.58124978190557        5.73270510419842       -0.04244571505361
C          110.58089551090694        7.10826052260134        0.18549492990978
C          111.24145071912571        7.98050302987041       -0.81845795903864
O          111.18587703392777        9.28508396435359       -0.51346014331122
O          111.78094223521326        7.57954927602070       -1.81758917039735
C          109.97160470208404        7.62799900623161        1.32745688699865
C          109.36596591782916        6.76835186746265        2.23034979583153
C          109.36278655132060        5.39973399034932        2.00079827577403
C          111.19690759640322        2.74380040959140        0.56099456127904
C          112.47765916845219        3.39642108258265        0.76737670830214
C          113.42061852575799        2.44377553116838        0.61615294797016
N          111.38232176564583        1.41721568691018        0.31439492568862
C          112.71414745454862        1.21060272854110        0.32935366022315
C          113.37680633226293       -0.01124597359286        0.09438689748376
C          112.75567042911253       -1.25246553974212       -0.14618030103904
C          113.41020332432961       -2.48288520405474       -0.41197039183095
C          112.44997461872823       -3.44435678871393       -0.57160010763736
C          111.18039269253350       -2.82880254613444       -0.39797657424314
N          111.41616344012029       -1.50232973694769       -0.15304224215202
C          109.92306806976532       -3.44005187604990       -0.47398094263904
C          109.91534808476649       -4.90398388737543       -0.72087240680528
C          109.31311934887860       -5.42350331247008       -1.86902055763157
C          109.30618555360449       -6.79086270372270       -2.10678691068469
C          109.89717784295230       -7.65632782675463       -1.20157290287387
C          110.50108674185007       -7.14949288324034       -0.04999811596202
C          111.12215026061115       -8.10945742495790        0.89704050542428
O          111.68497634807595       -7.52312624195469        1.96365729675894
O          111.13413542961372       -9.30374021650653        0.74302917958598
C          110.51065588177440       -5.77646778786351        0.18746932815346
C          108.69423706720143       -2.79170122421342       -0.34009999797348
C          107.41253025537617       -3.47386090264524       -0.36056956841649
C          106.46934870098541       -2.51975770484603       -0.21770474611768
C          107.17649583782099       -1.25976743312420       -0.10175482464535
N          108.50924865786899       -1.45433837083843       -0.16481748246814
H          105.41668271378761        2.62708196590481        0.25995056961815
H          107.29076743461913        4.50672645472783        0.57829760392821
H          109.19930018409367        0.75747746574403        0.22691358059196
H          111.04932231814691        5.34732741909035       -0.94163849062742
H          111.63500605118465        9.78498632543140       -1.21445581420817
H          109.97432091011800        8.69673784285441        1.50399300609102
H          108.89317360158843        7.16509463052101        3.12163729479788
H          108.89787017775046        4.73210947075033        2.71768268979424
H          112.61442960584391        4.43858167596912        1.00613593074965
H          114.49192931500150        2.53823850181967        0.69331420207440
H          114.47906781512573       -2.60712559843093       -0.47666313068734
H          112.60616177407725       -4.48639342225712       -0.79795869039004
H          110.69196168004349       -0.80724406864037       -0.00601074805364
H          108.86097015473715       -4.74638165575019       -2.58494237746312
H          108.83830029528956       -7.17898396886190       -3.00425297049278
H          109.90024696031655       -8.72707333880858       -1.37141152026706
H          112.06394357834021       -8.21414023447958        2.53095909136640
H          110.96721976465034       -5.38734217792717        1.08983369281878
H          107.27494331677894       -4.53871858066166       -0.45625978411171
H          105.39748297479946       -2.63205982706780       -0.18366985537958
C          119.97934702637620        0.00048704306943        0.09626493047430
C          120.60231880024915        1.25065274685698        0.27811059217053
C          119.94987483693106        2.50174394559097        0.42510565353798
C          120.91160623318008        3.46029322666915        0.59440110642273
C          122.17964186005590        2.81869693335974        0.56542725755517
N          121.94208406376691        1.48593168187333        0.36091795635145
C          123.43747407172573        3.41826398536733        0.70507470394428
C          123.44546564964546        4.88072148630786        0.96033602020461
C          124.05310617888205        5.75197200419885        0.06064988810295
C          124.05935618628691        7.12533946369209        0.30093252450422
C          124.72144977462406        8.00328951474386       -0.69690514021508
O          124.66895489481676        9.30584432071573       -0.38258706860920
O          125.26107704847189        7.60821373651886       -1.69827390685513
C          123.45689160614545        7.63709763063627        1.45009900736450
C          122.85263245584684        6.77152051089973        2.34819224927562
C          122.84400197375381        5.40487530116948        2.10698591294254
C          124.66540116072149        2.76026672716108        0.62619977468675
C          125.94767069417826        3.40993181576070        0.83280923539041
C          126.88925614182489        2.45840584300919        0.66674902025528
N          124.84878235057208        1.43660307779841        0.36340440394287
C          126.18064457393417        1.22911686327463        0.36931562573735
C          126.84147402060697        0.00974426520045        0.11710114551830
C          126.21879062053550       -1.22701890917197       -0.14185777810607
C          126.87214882621076       -2.45334856999094       -0.42820722396304
C          125.91084786264209       -3.41071662243225       -0.60557585617100
C          124.64199818518719       -2.79666011274445       -0.42250626646865
N          124.87901883120580       -1.47508452119181       -0.15395209747154
C          123.38388048644416       -3.40512078837410       -0.51082511183538
C          123.37573826605708       -4.86485854055304       -0.78151582751603
C          122.77579055660783       -5.36669316367659       -1.93863978455201
C          122.76954544499921       -6.73031521356696       -2.19714056221667
C          123.35882236920321       -7.60949717287936       -1.30404269720106
C          123.96019334921984       -7.12033876698866       -0.14350757885510
C          124.57987547569485       -8.09424371255998        0.79011134984175
O          125.14056729030489       -7.52378262055216        1.86654647831304
O          124.59274388500214       -9.28605576839015        0.61825638262262
C          123.96904118153536       -5.75110018906867        0.11479116975403
C          122.15591498848278       -2.75854141197035       -0.36455395433536
C          120.87368747866451       -3.43908397187563       -0.39721629432346
C          119.93181950754473       -2.48818291905551       -0.22713005920431
C          120.64034920803077       -1.23180940748204       -0.08316921776886
N          121.97223659260858       -1.42506050486958       -0.15787239106300
H          118.88150332708760        2.64286439785949        0.39730601865079
H          120.75740756663954        4.51975652761894        0.71807176506966
H          122.66548204959714        0.77968708026498        0.27612023429035
H          124.51536547300920        5.37299917024696       -0.84423763965053
H          125.11977074732751        9.80931339997348       -1.07987622315329
H          123.46438760136641        8.70422373222446        1.63603290691421
H          122.38559319953293        7.16186554431074        3.24532724115235
H          122.38148511475978        4.73261942156125        2.82108390668695
H          126.08662631170590        4.44918464867923        1.08268407433317
H          127.96096941718918        2.55152300605812        0.73981626325069
H          127.94094865761340       -2.57753786161251       -0.49398266280592
H          126.06587046214594       -4.44877528659087       -0.85021358039431
H          124.15542307057662       -0.78183225426097        0.00439162266410
H          122.32503354527910       -4.67873642055382       -2.64504956807748
H          122.30358167616826       -7.10483566414576       -3.10137657616405
H          123.36249811929927       -8.67749808163483       -1.49034871268714
H          125.51908982755113       -8.22324083163435        2.42369479485976
H          124.42362305075301       -5.37566179943243        1.02396030581393
H          120.73495268874036       -4.50117850968990       -0.51830938433803
H          118.86006561347682       -2.60080235748423       -0.19126298786217
C          133.44383228612011        0.01375219918470        0.11957597390143
C          134.06873566075086        1.26320254897235        0.29984610495185
C          133.41788318252566        2.51511017438126        0.44707943049485
C          134.38103523970636        3.47319095678504        0.61076222712671
C          135.64841049491082        2.83047036641102        0.57822075685275
N          135.40892668418567        1.49738253182437        0.37791355040056
C          136.90745462513397        3.42917290829966        0.71030240405492
C          136.91845825561214        4.89272214069866        0.95868070764570
C          137.52442698143469        5.75811231093618        0.05219295408110
C          137.53302838792774        7.13281567594861        0.28444351895640
C          138.19219626441404        8.00408450394809       -0.72117529141490
O          138.14278769071746        9.30848411664682       -0.41417629908335
O          138.72716421972888        7.60241309241183       -1.72243437688377
C          136.93493662556253        7.65188284458831        1.43262150532690
C          136.33266641001623        6.79215998571999        2.33766424672961
C          136.32141200332592        5.42415688486285        2.10428870295251
C          138.13432391557910        2.76947023538776        0.62832167344254
C          139.41795686738624        3.41791819776990        0.83010750030290
C          140.35785473518021        2.46465175567996        0.66440747824088
N          138.31529019353707        1.44504607138525        0.36778642242457
C          139.64690822693902        1.23578020168709        0.37088152450021
C          140.30559612374176        0.01539552521951        0.11792625979974
C          139.68072666412630       -1.22006523801729       -0.14199357358124
C          140.33186675406623       -2.44648705198986       -0.43285454574996
C          139.36895911664988       -3.40222730419993       -0.61031986996931
C          138.10132734211655       -2.78721650956899       -0.42209565243176
N          138.34060838648341       -1.46649470910166       -0.15135641167117
C          136.84226028222176       -3.39430251242594       -0.50666611184764
C          136.83142028744825       -4.85285368816060       -0.78349361540382
C          136.22398262693235       -5.34824119731221       -1.93956011720701
C          136.21545768087927       -6.71038831331550       -2.20546640189390
C          136.81064056285010       -7.59452678303547       -1.32121483964281
C          137.41973937505770       -7.11188435457725       -0.16197422280815
C          138.04702179882551       -8.09120020099072        0.76086050312405
O          138.61642067961211       -7.52735621382101        1.83619328501419
O          138.05913540978420       -9.28190699720808        0.58124507430763
C          137.43008109458418       -5.74413574871516        0.10423072718199
C          135.61559248414298       -2.74699871629768       -0.35293749162498
C          134.33252016585976       -3.42618400093087       -0.38154228976513
C          133.39232038889338       -2.47459474810891       -0.20612810687758
C          134.10274216285984       -1.21921648162167       -0.06287823171543
N          135.43412388868958       -1.41374589945348       -0.14281000253905
H          132.34953316080859        2.65702636566324        0.42291375342840
H          134.22817159199863        4.53304608144333        0.73268366620637
H          136.13146690205102        0.79053933363685        0.29079186080404
H          137.98329297117110        5.37334311238758       -0.85198192134790
H          138.59102213354637        9.80738638026020       -1.11640284318208
H          136.94418139394611        8.72006294739199        1.61233783257374
H          135.86908231189881        7.18821355548459        3.23410302164660
H          135.86033832677253        4.75662677993195        2.82373430120782
H          139.55888751371884        4.45757003411872        1.07720452032428
H          141.42985605640686        2.55651528037196        0.73473342673953
H          141.40033051479850       -2.57176933026329       -0.50188459613667
H          139.52223679047682       -4.43980393143119       -0.85806264905538
H          137.61821895588315       -0.77275130122253        0.01032863822826
H          135.76923769558164       -4.65619017869612       -2.63940199794773
H          135.74345636521946       -7.07980059909515       -3.10868401319111
H          136.81324258655684       -8.66145478372450       -1.51356913062883
H          139.00012436901019       -8.23039962341865        2.38526074242906
H          137.89030977599580       -5.37399585887743        1.01275369694617
H          134.19209731125420       -4.48792873066015       -0.50379159293705
H          132.32059508785696       -2.58624304294622       -0.16626781112565
C          146.90801158049538        0.01334348031941        0.11678331093314
C          147.53324687772857        1.26263656776089        0.29743523977740
C          146.88232671156806        2.51423091885831        0.44727729629987
C          147.84541876987049        3.47209698097351        0.61250281057337
C          149.11284639811944        2.82963774874470        0.57763479775183
N          148.87341157111135        1.49684732002363        0.37505380526159
C          150.37189637724470        3.42854950170981        0.70822331365503
C          150.38275008032346        4.89160681595334        0.95964469738955
C          150.98471684889083        5.75944191230435        0.05284186426966
C          150.99321478316696        7.13363212753019        0.28813074958387
C          151.64824642266328        8.00753747054632       -0.71791365007274
O          151.59961904084844        9.31116723928203       -0.40767496635248
O          152.17909081122949        7.60839078928543       -1.72237889463346
C          150.39900038540367        7.64972651637608        1.43966107768852
C          149.80060874787031        6.78756457838341        2.34495078295847
C          149.78942955873222        5.42006915543792        2.10854284274092
C          151.59880040455758        2.76954283053222        0.62136348814914
C          152.88286911620682        3.41837290883919        0.81882402062094
C          153.82258631839022        2.46589640784666        0.64762590569050
N          151.77935179765774        1.44552727231713        0.35839565750467
C          153.11107389948140        1.23693391363704        0.35585120170267
C          153.76939534875947        0.01683867334278        0.10045257788646
C          153.14419425208405       -1.21938622239023       -0.15481005794645
C          153.79494619676083       -2.44603370577574       -0.44562170187539
C          152.83197864566432       -3.40279744269523       -0.61713553138801
C          151.56466032810479       -2.78813613648410       -0.42560181844618
N          151.80415168674352       -1.46672898830995       -0.15852093189855
C          150.30563516080846       -3.39608474940424       -0.50543118339176
C          150.29494722194971       -4.85542295823813       -0.77806364833871
C          149.68467993980963       -5.35486026987248       -1.93090704527473
C          149.67616633092831       -6.71786084435521       -2.19244553839171
C          150.27414228531646       -7.59891357209671       -1.30699564910019
C          150.88629212556296       -7.11223444667303       -0.15104158398116
C          151.51649401889719       -8.08824209655230        0.77328360941332
O          152.08907090291189       -7.52055728122993        1.84491343550947
O          151.52813143881474       -9.27959987839359        0.59790259209035
C          150.89668391426608       -5.74362596340760        0.11070874292396
C          149.07905509511335       -2.74865989156805       -0.35136850117202
C          147.79586698491494       -3.42779338851365       -0.37754920882778
C          146.85583164729675       -2.47560173682739       -0.20452041153328
C          147.56647426414079       -1.22001455357275       -0.06422810378963
N          148.89782137487384       -1.41493345416695       -0.14417230398858
H          145.81394996032526        2.65606459425777        0.42394940887814
H          147.69250902958066        4.53165789980267        0.73692439020984
H          149.59612960080673        0.79036922644781        0.28646559908698
H          151.44056786932450        5.37704970163177       -0.85385934878547
H          152.04505624170096        9.81182749946166       -1.11042924453096
H          150.40820908373530        8.71751827543908        1.62169580622384
H          149.34000299317580        7.18125662845844        3.24396330798877
H          149.33130617452807        4.75062817665757        2.82810533153705
H          153.02422043874466        4.45775288285220        1.06682340326833
H          154.89482146824147        2.55825383190528        0.71352934723364
H          154.86322507376750       -2.57076827021355       -0.51844973405541
H          152.98490687339739       -4.44081561713875       -0.86325025346826
H          151.08187344919730       -0.77316950544432        0.00442150853607
H          149.22767101726043       -4.66536569261514       -2.63179922347853
H          149.20192404551315       -7.09039678719804       -3.09321418021161
H          150.27662320787192       -8.66645424369834       -1.49593056251446
H          152.47438091677742       -8.22155863012009        2.39544835411286
H          151.35940566532014       -5.37034547801974        1.01668050772165
H          147.65523561986726       -4.48983382989906       -0.49697149355388
H          145.78409151365443       -2.58698062221383       -0.16411066416730
C          160.37198438571949        0.02099142951290        0.08030921593858
C          160.99672242055823        1.27208054721710        0.24867125156983
C          160.34513198113180        2.52447898906826        0.39042340134741
C          161.30778797021597        3.48439792471731        0.54458832426310
C          162.57592581742387        2.84286984905070        0.51013184217386
N          162.33692426333528        1.50818709762092        0.31937522977909
C          163.83441928991368        3.44472303070249        0.62897914503105
C          163.84426509375152        4.90952059496387        0.87077003654848
C          164.43657847159778        5.77390912524098       -0.04551595607468
C          164.44581830856404        7.14916031232094        0.18384728018294
C          165.09143934000826        8.01958580038099       -0.83127733367200
O          165.04287418402657        9.32440084681465       -0.52649432365470
O          165.61526499292202        7.61673885074678       -1.83803353645758
C          163.86192177798151        7.66963206873880        1.33865656888678
C          163.27235143554552        6.81089920082164        2.25296116038554
C          163.26048255361090        5.44243843049206        2.02252992658832
C          165.06222774947852        2.78695616683576        0.54063940799248
C          166.34659875930481        3.44089467126686        0.71913475920015
C          167.28686360418357        2.48830168568693        0.55193231908137
N          165.24303599597960        1.46038268396828        0.29355059677088
C          166.57554955287497        1.25390280200009        0.28368638009356
C          167.23338064804724        0.03035261271586        0.04815814503867
C          166.60886808811890       -1.21199911210939       -0.17585051069601
C          167.26026475645543       -2.44329464457706       -0.44481182451542
C          166.29788438490331       -3.40347283831753       -0.59949850398157
C          165.03020885355335       -2.78611676123608       -0.41954500789632
N          165.26884760727359       -1.46054454070015       -0.17389386244544
C          163.77130868411894       -3.39503483466307       -0.49546600858144
C          163.76209979172157       -4.85785929593588       -0.74874103767594
C          163.15748171605043       -5.37305600459076       -1.89757918164468
C          163.15140807010914       -6.73942986963646       -2.14115993347427
C          163.74638856781758       -7.60817098882865       -1.24166370979721
C          164.35295577675168       -7.10566918419453       -0.08949605854293
C          164.98076585326703       -8.06834604701766        0.85012970741343
O          165.54189973938836       -7.48616361744648        1.92005003139786
O          164.99933964812021       -9.26162244301763        0.68828660490061
C          164.36066533964669       -5.73374435441603        0.15429880722840
C          162.54432372960630       -2.74557184262183       -0.35516997874484
C          161.26115462817668       -3.42491872167195       -0.37757695732799
C          160.32070802919733       -2.47093568717847       -0.21735358799295
C          161.03105966256297       -1.21379948932416       -0.08901798921141
N          162.36243598856848       -1.40942024962517       -0.16405782318609
H          159.27651301942470        2.66492520854723        0.36959648060462
H          161.15471013186152        4.54484226037953        0.66112629513182
H          163.05977254817449        0.80131876094560        0.23511159054866
H          164.88457458963458        5.38816508617947       -0.95470576782889
H          165.48322566255621        9.82293412953070       -1.23393656715245
H          163.87231048160885        8.73814300919133        1.51631231982883
H          162.81966696306364        7.20800921726689        3.15447955299690
H          162.80956873561917        4.77551460398117        2.74895291406864
H          166.48786694363176        4.48367628328579        0.95238500902545
H          168.35941611131582        2.58336334479552        0.60806224017904
H          168.32856806926293       -2.56901435062121       -0.51548499916584
H          166.45176906091282       -4.44545161894503       -0.82762351832588
H          164.54595793372130       -0.76469299201864       -0.02399270888103
H          162.70304418642971       -4.69339626707776       -2.60966559885643
H          162.68154617601880       -7.12425441742736       -3.03906460629092
H          163.75086802788175       -8.67808334482919       -1.41662277525495
H          165.92515329917981       -8.17912621326114        2.48201643368471
H          164.81921003750688       -5.34796235266108        1.05714048390219
H          161.12097406149192       -4.48823372750960       -0.48576002359702
H          159.24886057682838       -2.58182315458321       -0.17845665824925
