148
 energy: -254.440847420425 gnorm: 0.000347162883 xtb: 6.5.1 (b24c23e)
Zn          14.44138972972560        0.03682646969854        0.02346712712129
C           11.03494588542697        0.22772444149113       -0.10794887768263
C           11.66877313250764        1.06997140112787        0.79829565379956
C           11.00212439411469        1.99160766863883        1.67632471785053
C           11.96414304005598        2.61573176632255        2.40102584200756
C           13.23086673575973        2.08713542764782        1.97057335107312
N           13.01605689597257        1.15154451226264        1.00110849025721
C           14.47934958914623        2.45740392216948        2.47976365941130
C           15.71304062294685        1.93897043934806        2.07873760790384
C           16.99110559582401        2.35512307075279        2.58539478628158
C           17.93606971178063        1.63675664859954        1.92688909495545
N           15.90592539455824        0.97824396580060        1.12195869177207
C           17.24556012054118        0.77612126340744        1.01059231916714
C           17.87419541776830       -0.12959936870365        0.13193250338343
C           17.21641835268869       -0.98413299045693       -0.77606131854306
C           17.87563554078404       -1.92005027147361       -1.63993235765496
C           16.90796790831335       -2.55435698446693       -2.34997452863399
C           15.64758068929248       -2.00682184927983       -1.93178840346718
C           14.39745223067802       -2.39584844537348       -2.41934024257205
C           14.37741597067355       -3.45128349062489       -3.47351756974131
C           14.82497866792878       -3.16781385836588       -4.77034744417520
O           15.25158962471415       -1.89473185276184       -4.98627777655641
C           15.74082479403665       -1.51045113451570       -6.25485307552611
C           14.80623809050217       -4.15497615757137       -5.75528181179512
C           14.34352911377265       -5.42311958074427       -5.43804589292213
C           13.89574396643458       -5.72734713510846       -4.16137166832340
C           13.91022317796448       -4.73842181062662       -3.17818251047372
O           13.49760016303450       -4.94131624444469       -1.89804584166920
C           13.00067192844550       -6.20223985960655       -1.49908035099426
C           13.16274790933968       -1.88336677989974       -2.00937620406339
C           11.88221120191894       -2.26815286590419       -2.53989600727479
C           10.94314243493251       -1.53224424835490       -1.89423298217064
C           11.63856254402210       -0.68592016487592       -0.96430653945862
N           12.97965391338740       -0.92126150736684       -1.05955862653127
N           15.87288178306866       -1.05807779153977       -0.96993982660191
C           14.49605574853584        3.50320426811716        3.54343639545469
C           14.81219478808869        3.16482636306441        4.86549556967551
O           15.08024352597067        1.85136542862802        5.09438762369034
C           15.43612281727779        1.40947891382174        6.38837347513984
C           14.82763891575347        4.14241877537256        5.85999449314569
C           14.53119071453764        5.45551709000449        5.52712135604051
C           14.21664437287491        5.81460222737629        4.22512464729181
C           14.19678493916986        4.83573530363677        3.23205314461179
O           13.90772325302147        5.08992108248653        1.92744847539561
C           13.58444415793756        6.40007588133786        1.50923304211802
H            9.95171531003195        0.28954935255809       -0.15085673834647
H            9.93323940435946        2.13168002570188        1.72504632514625
H           11.83522939020085        3.36881527320345        3.16220396722486
H           17.14158473381981        3.10449192038354        3.34605855304468
H           19.00745537891659        1.68089117449713        2.04360710510831
H           18.94278256478433       -2.07004537738744       -1.68690545019077
H           17.03193691533895       -3.32678024679540       -3.09213627286829
H           14.96921914353593       -1.60420756326699       -7.02886293718161
H           16.03120123183702       -0.46208162662902       -6.16408408591125
H           16.61745618808943       -2.10288588139363       -6.54384243697161
H           15.14626255190005       -3.94514028241192       -6.76061780488840
H           14.33124158239140       -6.19165979530240       -6.20316674018953
H           13.54183700665607       -6.72581790446501       -3.94190300070230
H           12.72713374690731       -6.10250005354463       -0.44696969388357
H           12.11194243732614       -6.48530542919080       -2.07630785399312
H           13.76240620975096       -6.98502087352097       -1.60006119362475
H           11.72916299475799       -3.00704591915516       -3.31048685856295
H            9.87260807701330       -1.54964676912311       -2.02903172835554
H           15.62026152671627        0.33682235051393        6.30356048287656
H           14.62631813488551        1.57945563922134        7.10852636612783
H           16.34780432507207        1.90394505350924        6.74526454266320
H           15.06616098476558        3.89058992032131        6.88470542578606
H           14.54532016173265        6.21627456734895        6.29995316689285
H           13.99157105321711        6.84719676375319        3.99394707064724
H           14.41483048378432        7.09496459795650        1.68457848106374
H           13.39027216249219        6.33783070927713        0.43678583499478
H           12.68637008152934        6.77378679275013        2.01621012252898
Zn          27.91165333817657       -0.01792011942744       -0.03924084150804
C           31.31786433554453        0.14210537487690       -0.21130740945292
C           30.68437107438722       -0.63601091104002       -1.17338775414041
C           31.35114322608546       -1.37402937670655       -2.21046388665251
C           30.38931192082681       -2.00396474328216       -2.93037124344044
C           29.12259065658942       -1.65386060682179       -2.34543926108181
N           29.33721315571729       -0.82648754206219       -1.28211087822855
C           27.87419195613605       -2.10599643991207       -2.78377309046035
C           26.64050429190058       -1.78285267329003       -2.21354409836659
C           25.36251268523305       -2.22530814724188       -2.69757540065749
C           24.41743341631094       -1.67540706665383       -1.89317696703461
N           26.44747461175139       -0.97217653736089       -1.12670651890713
C           25.10780030197563       -0.89059802814837       -0.91106552535641
C           24.47885613892799       -0.14932482478635        0.10995528089009
C           25.13634908666920        0.62821808421729        1.08489162132102
C           24.47694508998424        1.35071338124454        2.13369675798436
C           25.44451516190630        1.96334506829916        2.86265479349680
C           26.70502878116616        1.62687397134962        2.26167654593320
C           27.95516970425651        2.05408143029033        2.71614603981407
C           27.97515148025310        2.94742404970900        3.91077754407124
C           27.52656157201708        4.27106419032416        3.81490127471876
O           27.09928066602073        4.66567559763404        2.58564165950638
C           26.60917860573193        5.97571677261512        2.38589698622624
C           27.54496804628621        5.10547778642331        4.93219784441361
C           28.00840937436135        4.61134075543708        6.14214420712539
C           28.45735442923824        3.30474325328946        6.26141065262341
C           28.44319514814429        2.47231373646055        5.14262178448505
O           28.85697316395182        1.17669364327744        5.16107849100029
C           29.35507352625254        0.60277244322375        6.35210240388133
C           29.18986871660221        1.72144583306887        2.15035418101319
C           30.47030340115905        2.19243217473834        2.60634526628594
C           31.40935531177281        1.65906908945715        1.78537234390244
C           30.71404877784177        0.85896476671765        0.81532756743876
N           29.37301642245466        0.91873122549051        1.06247982355289
N           26.47987280676192        0.80944639839953        1.18598234479486
C           27.85752038713873       -3.01051673767217       -3.96991306834517
C           27.54192924400541       -4.36732953770086       -3.82244365087207
O           27.27455700164790       -4.78036739555740       -2.55463614541303
C           26.91833283244458       -6.12386250112600       -2.30080057449639
C           27.52641998722978       -5.21306109348414       -4.93124322546899
C           27.82227402984785       -4.69712177584626       -6.18392062691026
C           28.13632161861598       -3.35724711752627       -6.35472187209463
C           28.15626724456334       -2.51310541451163       -5.24485562605673
O           28.44488519615158       -1.18554347298364       -5.31146450934829
C           28.76785690432840       -0.58564263134271       -6.54909628182910
H           32.40100361891889        0.19464993505078       -0.26700025662323
H           32.41996885644902       -1.40141439283749       -2.35665463438604
H           30.51836074767780       -2.65082427354729       -3.78363964291316
H           25.21215729736845       -2.87179565029600       -3.54743033470944
H           23.34604913904850       -1.78458458865071       -1.95360306739965
H           23.40975838132326        1.37619681490877        2.28851659527485
H           25.32035326970363        2.58849503521253        3.73246977485758
H           27.38051342108690        6.72895684338017        2.58820565377483
H           26.31807723493710        6.03471152104148        1.33546036551781
H           25.73284960723312        6.17709710137379        3.01396073254876
H           27.20408235570302        6.13016523959509        4.86768916585645
H           28.02036909713159        5.25927954826727        7.01176857955289
H           28.81187921640702        2.94568552044758        7.21835943315241
H           29.62944553590849       -0.42416720143713        6.10345705095273
H           30.24350011587804        1.13465663590122        6.71398398682908
H           28.59377462340740        0.59057151436150        7.14169396139684
H           30.62332265402629        2.84963185349822        3.44769035794659
H           32.47982007269977        1.79069482385460        1.82134207045984
H           26.73470271858064       -6.19216320112089       -1.22687947408042
H           27.72773967716714       -6.81289670188598       -2.57170659979699
H           26.00628075425779       -6.40657221763775       -2.84049261864639
H           27.28832650921325       -6.26322454663601       -4.82728020078895
H           27.80807417321623       -5.35417655766106       -7.04664696080316
H           28.36093825275674       -2.98180948121120       -7.34413931336263
H           27.93734588411044       -0.66072779575916       -7.26167478665454
H           28.96195027944876        0.46714781253180       -6.33537023892736
H           29.66589951872205       -1.03437193957958       -6.99111711103501
C           20.50152187478770       -0.19009175862669        0.16881747971788
C           19.27932033192303       -0.17450256138261        0.15653558636819
C           21.85154644857067       -0.19493531056688        0.16524866393372
C           23.07371121684985       -0.17992971043651        0.15008596429484
