203
 energy: -415.151467082834 gnorm: 0.000933414384 xtb: 6.5.1 (b24c23e)
Ni          31.47269927659096        0.07576084048048        0.02263474653096
C           28.08396423766654        0.18999416450697        0.07501208384209
C           28.73458354531183       -0.26463714689327        1.20324705143534
C           28.05939577282363       -0.72575342922530        2.37802710214539
C           29.01670902722642       -0.99272204333223        3.29673513862173
C           30.27592564871374       -0.67753061769990        2.68704084682672
N           30.09451497725152       -0.27283914981596        1.38852169916483
C           31.49450365482105       -0.71641138144913        3.35206687563181
C           31.51215267332765       -1.07440836707316        4.79006277430076
C           30.84829036166456       -0.27750568983767        5.72583115692202
C           30.87201402515806       -0.60620900889660        7.07128755719223
C           31.55979916743001       -1.74208758427988        7.46654165108447
S           31.60404543901309       -2.15730176313959        9.16930913147950
O           31.39418147874478       -0.99643318779917        9.98341219553356
O           30.25796379523729       -3.06413164763736        9.22501327662012
O           32.72647696690972       -3.00050159525483        9.45782640476614
C           32.22724290328186       -2.55201374185279        6.56217920377728
C           32.20193254026966       -2.21072161021215        5.22007498922088
C           32.70120261236451       -0.42703198268941        2.72779261123405
C           33.96001161363446       -0.37789105229513        3.40814253682973
C           34.90624490121922       -0.15897711437042        2.46381857017184
N           32.87146719123662       -0.19523339559682        1.38246207031301
C           34.22363880610590       -0.07084185539302        1.21229993770422
C           34.88338476098836        0.02324751255715       -0.01574068251264
C           34.20018194550652        0.12309033680073       -1.23048382207779
C           34.85657850070859        0.16619547645092       -2.49822239438833
C           33.89453189989443        0.38349001438694       -3.42695139994386
C           32.65353890238151        0.48505285309707       -2.72002089670729
N           32.84851312905240        0.27906441374944       -1.37373237942855
C           31.44363872713780        0.80958356659459       -3.32026902737565
C           31.43428137757582        1.12879924406326       -4.76725812186911
C           30.69267440136066        0.34906907474541       -5.65795887113540
C           30.68436862441401        0.64375791258415       -7.01158763271448
C           31.42163491929472        1.72712784272741       -7.46070575404296
S           31.40679255799991        2.11518360571846       -9.17064602830690
O           31.68576433203169        3.50528854967791       -9.38556247469561
O           32.72326771714865        1.27611706189522       -9.61956223054746
O           30.25853106529402        1.54034102569053       -9.80499491084148
C           32.16107804384293        2.52321133741261       -6.60087472581902
C           32.16618928213517        2.21661027622461       -5.25032420241298
C           30.24543513844374        0.85641982096377       -2.61911779104617
C           28.99160332794418        1.24592560482862       -3.19620794419565
C           28.04988052790536        1.07333609298790       -2.23973798761495
C           28.72935965586111        0.58785137748020       -1.07722110122646
N           30.07965823760101        0.49388710030502       -1.30630920507324
H           27.00120797567092        0.23045194329846        0.09247096867613
H           26.98963987326503       -0.82683659160553        2.46783037205002
H           28.89483331283466       -1.36965913111717        4.29917658839041
H           30.32681905492173        0.61377183231087        5.39696005390324
H           30.37195631503807        0.01087600579688        7.80718441656687
H           30.10105285677950       -3.37470122529686       10.12505881394901
H           32.75959358439308       -3.42961674863374        6.90681474434875
H           32.71090250191583       -2.83435013271023        4.49443146000385
H           34.09167668604929       -0.49008204688517        4.47186847271829
H           35.97321531849206       -0.06751323115959        2.58699000838057
H           35.91787381187513        0.04470881415152       -2.64279685430426
H           34.00522663397857        0.46526874411947       -4.49583113175937
H           30.13118664038747       -0.50041223724751       -5.28701749649012
H           30.11332429301412        0.04620701177962       -7.71099317460473
H           33.01376473477499        1.55706464736914      -10.49581876051036
H           32.71575091758633        3.37022088195052       -6.98466464224403
H           32.72857400297239        2.83302272063901       -4.55876115503014
H           28.86288652579486        1.60748991734388       -4.20341277488268
H           26.98785183259780        1.25054053941759       -2.29718799490844
Ni          63.47056176654010        0.06154708837275       -0.00042894497312
C           66.86005252382836        0.19152133193146       -0.01263361281433
C           66.20731714630834        0.19440663931339       -1.22771540481489
C           66.88153058888975        0.21285925166082       -2.49012849292050
C           65.92291687267750        0.30492997645747       -3.44096718867396
C           64.66382090999944        0.35863334275457       -2.75649746885602
N           64.84685820189233        0.24901381193295       -1.40106455593438
C           63.44304022030221        0.55464292689393       -3.38880820213383
C           63.42481855259758        0.75776765002252       -4.85685408957057
C           64.07131009483844        1.85770135370690       -5.42572637613830
C           64.04866686618502        2.05423887471212       -6.79675488213046
C           63.37944682427742        1.13584614210459       -7.58929944984068
S           63.33827197930628        1.38401136806871       -9.32439571132198
O           63.53358954442418        2.76694098424171       -9.64609242166940
O           64.69403396460889        0.57672539654788       -9.70891049210147
O           62.22606083895241        0.69628447541204       -9.91130825696121
C           62.72901062508477        0.03577105967870       -7.05440201753267
C           62.75307102463399       -0.14782954512522       -5.68174577007958
C           62.23555319793692        0.57494227121659       -2.70284604105436
C           60.97304457331703        0.85004827266331       -3.31976562884219
C           60.02841882252214        0.69741182026132       -2.36122381073837
N           62.06847077561161        0.29801906406458       -1.36565816777940
C           60.71573259518874        0.33587010380992       -1.16229728770231
C           60.05945021165939       -0.01526914983761        0.01970599759152
C           60.74393935262938       -0.34732198976502        1.19118465787209
C           60.08808187314715       -0.75669739018930        2.39216240542504
C           61.05149345451839       -0.89051165275481        3.33492570953745
C           62.29290110234555       -0.54964952003084        2.70802806366603
N           62.09638897141068       -0.25688620867853        1.37808886076165
C           63.50581407225598       -0.47754273263249        3.38084083633150
C           63.52002172758436       -0.71214424755981        4.84412493813709
C           64.25063838241790       -1.77484806373943        5.38097108041379
C           64.26629145543230       -1.99767882520954        6.74816809846227
C           63.54722267354479       -1.14446483087924        7.56911261427498
S           63.57275802110146       -1.41130229451581        9.30210687886943
O           63.30918755765446       -0.19508424667493       10.01475826613797
O           62.24911287523455       -2.34499385285783        9.42273061858038
O           64.71766404898013       -2.18829298403726        9.67147163682723
C           62.81834136663856       -0.07850074552408        7.06685370323992
C           62.80584816772949        0.13221334833535        5.69804154452457
C           64.70440566495695       -0.18762455757051        2.74162130672850
C           65.96119988375996       -0.04839237053216        3.41838530627055
C           66.90105787597885        0.14183922816199        2.46355914621245
C           66.21751495010373        0.12786996578231        1.20606232997778
N           64.86698745752071       -0.03889484058438        1.38742313340139
H           67.94278994219687        0.23613263747502       -0.01585121990536
H           67.95155501174170        0.15954906946120       -2.61202951823191
H           66.04359304778957        0.33316106866871       -4.51169411632270
H           64.57864806734480        2.57065473281812       -4.78636520638205
H           64.53552255638998        2.90980251964763       -7.24771270786879
H           64.83673546247820        0.59776747218741      -10.66301575538176
H           62.21067176252057       -0.65901963126388       -7.70321033376462
H           62.25746260919374       -1.00584121008192       -5.24278713991471
H           60.83796960582726        1.13012169519803       -4.35160646496956
H           58.95985579637358        0.81280860407844       -2.44353026449270
H           59.02619743844336       -0.91694485665723        2.48566464936480
H           60.94174096794397       -1.19565920348843        4.36267976051125
H           64.79820384916165       -2.43648680683466        4.71999245361577
H           64.82938633539912       -2.81800451707933        7.17515744255371
H           61.95062242036478       -2.38324073381333       10.33954119717591
H           62.27780940927268        0.57616943903612        7.73889398878531
H           62.25181215356234        0.96718225903499        5.28530124511335
H           66.09297078703452       -0.08805113839266        4.48740512436821
H           67.96420977414166        0.27923679438090        2.57945198872230
C           40.08531879385338       -0.01463786815173       -0.05291683240091
C           38.85782832210126       -0.01046874965857       -0.04733348473638
C           37.51215088080765        0.00070040605929       -0.04005913620781
C           36.28923147956529        0.00952496583355       -0.02935056307133
C           41.43094649679391       -0.02196414257971       -0.05213201278457
C           42.65408137679248       -0.02474079414332       -0.04991087185238
C           56.08424375895876       -0.06486698411453        0.02643509559129
C           54.85701163002500       -0.07312465653274        0.02126058255822
C           53.51097386868187       -0.07439815391529        0.01231458574201
C           52.28809068152844       -0.06879315505669        0.00771154362966
C           57.43038018509903       -0.05426336328973        0.02544464900148
C           58.65304110238616       -0.03869647819598        0.02734645130114
Ni          47.47095515355110       -0.04309915767049       -0.02712736545559
C           44.05941058883777       -0.02948479523002       -0.04484628117379
C           44.73298474577452        0.91846351234616        0.73076893983856
C           44.06895996517922        1.87735300186128        1.55486483413324
C           45.02490200114926        2.71530451619060        2.02434845070032
C           46.26974915019289        2.26940779630313        1.47638119493975
N           46.08394397189734        1.13406877875488        0.72181685753494
C           47.47450574367188        2.94387761135182        1.62809904293189
C           47.47486280748768        4.24066616666597        2.34479455530122
C           48.22285678002064        4.39916463334637        3.51394453080068
C           48.22364933555960        5.60853616715189        4.18949050377423
C           47.47307559693022        6.65525202554209        3.67965325757039
S           47.47850531494580        8.19366611626907        4.52158648119121
O           47.19981946163769        9.27442415649198        3.62142370536527
O           46.15820833795288        7.96994204573972        5.44044700056015
O           48.62281893082083        8.29128823506890        5.37707727493047
C           46.72724885622271        6.53070392887266        2.51862113171051
C           46.72881601720479        5.31537479306639        1.85437320450251
C           48.67841360976191        2.45449158280580        1.13778640887579
C           49.92540370470970        3.15168769282397        1.22667404288669
C           50.87964545038510        2.30514088484331        0.76954128190975
N           48.86124216576226        1.21138315641155        0.57736810415785
C           50.21238608535541        1.09973905552066        0.39341688153152
C           50.88222218541585       -0.06141692383805       -0.00158566418035
C           50.20554386167519       -1.21488426272513       -0.40739532916495
C           50.86524152522702       -2.42661858070396       -0.77632565604375
C           49.90917715542049       -3.26068144472484       -1.25227176407501
C           48.66882433501841       -2.54976965931411       -1.18105754475597
N           48.85630846980710       -1.31096163715716       -0.61291027709156
C           47.46774627314199       -3.02420923735176       -1.69276424186864
C           47.46864250185686       -4.31385149206840       -2.42208964791354
C           48.23482029965063       -4.46472726868604       -3.58049981731768
C           48.23729416889022       -5.66583882398769       -4.27041272787884
C           47.46976228006950       -6.71220213450967       -3.78568972997584
S           47.47651849318446       -8.23956500877124       -4.64738127769313
O           47.16225992807571       -9.32854746262944       -3.76893690134307
O           46.18248438773470       -7.98638409488649       -5.59568770750986
O           48.64027196165265       -8.34099870913930       -5.47603218180230
C           46.70599285384976       -6.59548689225036       -2.63559085964874
C           46.70639451662131       -5.38822193398868       -1.95663891390542
C           46.26707325301505       -2.34011585023531       -1.55271151107635
C           45.02460690249912       -2.77324083980132       -2.11608255972206
C           44.07019370700335       -1.93096363117461       -1.65113532862496
C           44.73315816699236       -0.98109265906518       -0.81588478686230
N           46.08218329691373       -1.20705665737855       -0.79435245427506
H           43.00675793463385        1.89656571581121        1.73753461573871
H           44.90764532998050        3.55918657945420        2.68438011402786
H           48.79512415583812        3.56420454181348        3.90101425525704
H           48.79912631752468        5.74234173079685        5.09682328193471
H           45.85636113345640        8.81346050758110        5.79903077313409
H           46.16236290565757        7.37390477132865        2.14134890415546
H           46.16123365045006        5.19968307192848        0.93843094659408
H           50.04521249931327        4.15916067542924        1.59012684913748
H           51.94255600381772        2.46657316013798        0.69095797178690
H           51.92484696953661       -2.60024910856336       -0.68098064750396
H           50.02346058935714       -4.26832375071963       -1.61705988634345
H           48.82013966373876       -3.62987730710671       -3.94774809972114
H           48.82675700445684       -5.79360497200421       -5.16957472366051
H           45.88301039563168       -8.81991278887329       -5.97871085493416
H           46.12827761269346       -7.43849392594307       -2.27782186738605
H           46.12505066997237       -5.27911648501766       -1.04855844118949
H           44.90757524162897       -3.61260243311724       -2.78188417019301
H           43.00976183058161       -1.94115105796796       -1.84456610667548
